3d6q_ligand

Created by X-TOOL on Fri Sep 26 17:34:43 2014
 44 46  0  0  0  0  0  0  0  0999 V2000
   34.8340   -4.5860   12.4600  C 0  0  0  1  0  3
   36.0120   -4.5010   13.1970  C 0  0  0  2  0  3
   36.8260   -3.3760   13.0620  C 0  0  0  2  0  3
   36.4610   -2.3090   12.2020  N 0  0  0  1  0  3
   34.4690   -3.5520   11.5980  N 0  0  0  2  0  3
   43.4960   -2.5520   14.1130  C 0  0  0  3  0  4
   42.2910   -3.5030   14.1750  C 0  0  0  3  0  4
   40.9410   -2.7630   14.0450  C 0  0  0  3  0  4
   43.4070   -1.4530   15.1850  C 0  0  0  3  0  4
   41.9510   -1.1790   15.5870  C 0  0  0  3  0  4
   41.0360   -1.3370   14.4350  N 0  3  0  2  0  4
   39.7650   -0.7660   14.9250  C 0  0  0  3  0  4
   38.5330   -0.8320   13.9700  C 0  0  0  2  0  4
   38.6600   -1.3680   12.6150  O 0  0  0  1  0  2
   38.0070    0.5470   13.6410  C 0  0  0  2  0  4
   37.4740    1.2430   14.7580  O 0  0  0  2  0  2
   36.8730    0.2110   12.7040  C 0  0  0  2  0  4
   36.8750    1.2950   11.7730  O 0  0  0  2  0  2
   37.3430   -1.1040   12.0380  C 0  0  0  2  0  4
   34.1020   -5.5690   12.5560  O 0  0  0  1  0  1
   35.2700   -2.4080   11.4660  C 0  0  0  1  0  3
   34.9100   -1.5120   10.7080  O 0  0  0  1  0  1
   36.2958   -5.3060   13.8733  H 0  0  0  1  0  1
   37.7559   -3.3163   13.6256  H 0  0  0  1  0  1
   33.6250   -3.6272   11.0670  H 0  0  0  1  0  1
   43.5272   -2.0800   13.1199  H 0  0  0  1  0  1
   44.4169   -3.1321   14.2724  H 0  0  0  1  0  1
   42.3103   -4.0334   15.1385  H 0  0  0  1  0  1
   42.3741   -4.2305   13.3542  H 0  0  0  1  0  1
   40.2035   -3.2578   14.6940  H 0  0  0  1  0  1
   40.6062   -2.8210   12.9988  H 0  0  0  1  0  1
   43.8483   -0.5276   14.7864  H 0  0  0  1  0  1
   43.9693   -1.7740   16.0742  H 0  0  0  1  0  1
   41.8722   -0.1503   15.9686  H 0  0  0  1  0  1
   41.6581   -1.8865   16.3767  H 0  0  0  1  0  1
   41.3670   -0.8086   13.6430  H 0  0  0  1  0  1
   39.9468    0.2939   15.1562  H 0  0  0  1  0  1
   39.4965   -1.3017   15.8474  H 0  0  0  1  0  1
   37.7670   -1.4154   14.5019  H 0  0  0  1  0  1
   38.7806    1.1607   13.1564  H 0  0  0  1  0  1
   37.1640    2.0967   14.4793  H 0  0  0  1  0  1
   35.9007    0.0980   13.2058  H 0  0  0  1  0  1
   36.1824    1.1651   11.1359  H 0  0  0  1  0  1
   37.4443   -0.9218   10.9579  H 0  0  0  1  0  1
  2  1  1  0  0  1
  5  1  1  0  0  1
  1 20  2  0  0  2
  3  2  2  0  0  1
  4  3  1  0  0  1
 19  4  1  0  0  2
  4 21  1  0  0  1
 21  5  1  0  0  1
  7  6  1  0  0  1
  9  6  1  0  0  1
  8  7  1  0  0  1
 11  8  1  0  0  1
 10  9  1  0  0  1
 11 10  1  0  0  1
 12 11  1  0  0  2
 13 12  1  0  0  2
 14 13  1  0  0  1
 13 15  1  0  0  1
 14 19  1  0  0  1
 15 16  1  0  0  2
 15 17  1  0  0  1
 17 18  1  0  0  2
 17 19  1  0  0  1
 21 22  2  0  0  2
  2 23  1  0  0  2
  3 24  1  0  0  2
  5 25  1  0  0  2
  6 26  1  0  0  2
  6 27  1  0  0  2
  7 28  1  0  0  2
  7 29  1  0  0  2
  8 30  1  0  0  2
  8 31  1  0  0  2
  9 32  1  0  0  2
  9 33  1  0  0  2
 10 34  1  0  0  2
 10 35  1  0  0  2
 11 36  1  0  0  2
 12 37  1  0  0  2
 12 38  1  0  0  2
 13 39  1  0  0  2
 15 40  1  0  0  2
 16 41  1  0  0  2
 17 42  1  0  0  2
 18 43  1  0  0  2
 19 44  1  0  0  2
M  END
> <MOLECULAR_FORMULA>
C14H22N3O5

> <MOLECULAR_WEIGHT>
312.2

> <NUM_HB_ATOMS>
7  

> <NUM_ROTOR>
3  

> <XLOGP2>
-1.20

$$$$
