#	Name:			3d6q_ligand
#	Creating user name:	suminyi
#	Creation time:		Sun Sep 30 06:50:57 2018

#	Modifying user name:	suminyi
#	Modification time:	Sun Sep 30 06:50:57 2018

@<TRIPOS>MOLECULE
3d6q_ligand
   44    46     1     1     0
SMALL
MMFF94_CHARGES


@<TRIPOS>ATOM
      1 C4         34.6060   -4.3750   12.2960 C.2       1 MOL         0.6156 
      2 C5         35.6660   -4.4170   13.2910 C.2       1 MOL        -0.1356 
      3 C6         36.6220   -3.4400   13.4030 C.2       1 MOL        -0.0410 
      4 N1         36.5150   -2.3960   12.4820 N.am      1 MOL        -0.4691 
      5 N3         34.6380   -3.2940   11.5370 N.am      1 MOL        -0.4900 
      6 CAV        43.5510   -2.5340   14.1320 C.3       1 MOL         0.0000 
      7 CAK        42.3460   -3.4530   14.4230 C.3       1 MOL         0.0000 
      8 CAM        41.0150   -2.6650   14.4180 C.3       1 MOL         0.5030 
      9 CAJ        43.6420   -1.3960   15.1780 C.3       1 MOL         0.0000 
     10 CAL        42.2560   -0.9260   15.6780 C.3       1 MOL         0.5030 
     11 NBA        41.1310   -1.1660   14.6860 N.4       1 MOL        -0.9590 
     12 C5'        39.8300   -0.5800   15.2550 C.3       1 MOL         0.5030 
     13 C4'        38.5130   -0.7120   14.4420 C.3       1 MOL         0.2800 
     14 O4'        38.6490   -1.5800   13.2940 O.3       1 MOL        -0.5600 
     15 C3'        37.9940    0.5920   13.8180 C.3       1 MOL         0.2800 
     16 O3'        37.3460    1.4200   14.7900 O.3       1 MOL        -0.6800 
     17 C2'        36.9980    0.0690   12.7750 C.3       1 MOL         0.2800 
     18 O2'        36.8890    0.8960   11.5970 O.3       1 MOL        -0.6800 
     19 C1'        37.5360   -1.3390   12.3970 C.3       1 MOL         0.5801 
     20 O4         33.7670   -5.2270   12.1730 O.2       1 MOL        -0.5700 
     21 C2         35.4990   -2.2980   11.5930 C.2       1 MOL         0.6900 
     22 O2         35.3770   -1.3310   10.8740 O.2       1 MOL        -0.5700 
     23 H1         35.6110   -5.2730   13.9470 H         1 MOL         0.1500 
     24 H2         37.4250   -3.4040   14.1290 H         1 MOL         0.1500 
     25 H3         33.9160   -3.2310   10.8340 H         1 MOL         0.3700 
     26 H4         43.4450   -2.1090   13.1310 H         1 MOL         0.0000 
     27 H5         44.4790   -3.1160   14.1340 H         1 MOL         0.0000 
     28 H6         42.4850   -3.9230   15.4010 H         1 MOL         0.0000 
     29 H7         42.3020   -4.2610   13.6870 H         1 MOL         0.0000 
     30 H8         40.3430   -3.0860   15.1700 H         1 MOL         0.0000 
     31 H9         40.5360   -2.7750   13.4400 H         1 MOL         0.0000 
     32 H10        44.1960   -0.5540   14.7540 H         1 MOL         0.0000 
     33 H11        44.2190   -1.7410   16.0420 H         1 MOL         0.0000 
     34 H12        42.2880    0.1370   15.9340 H         1 MOL         0.0000 
     35 H13        41.9970   -1.4830   16.5850 H         1 MOL         0.0000 
     36 H14        41.3640   -0.6950   13.7890 H         1 MOL         0.4500 
     37 H15        40.0050    0.4810   15.4600 H         1 MOL         0.0000 
     38 H16        39.6690   -1.0690   16.2210 H         1 MOL         0.0000 
     39 H17        37.7270   -1.1110   15.0950 H         1 MOL         0.0000 
     40 H18        38.8100    1.1290   13.3260 H         1 MOL         0.0000 
     41 H19        36.5620    0.9620   15.1890 H         1 MOL         0.4000 
     42 H20        36.0110   -0.0400   13.2390 H         1 MOL         0.0000 
     43 H21        36.2500    0.3510   11.0370 H         1 MOL         0.4000 
     44 H22        37.9230   -1.3560   11.3630 H         1 MOL         0.0000 
@<TRIPOS>BOND
     1    2    1 1    
     2    5    1 am   
     3    1   20 2    
     4    3    2 2    
     5    4    3 1    
     6   19    4 1    
     7    4   21 am   
     8   21    5 am   
     9    7    6 1    
    10    9    6 1    
    11    8    7 1    
    12   11    8 1    
    13   10    9 1    
    14   11   10 1    
    15   12   11 1    
    16   13   12 1    
    17   14   13 1    
    18   13   15 1    
    19   14   19 1    
    20   15   16 1    
    21   15   17 1    
    22   17   18 1    
    23   17   19 1    
    24   21   22 2    
    25    2   23 1    
    26    3   24 1    
    27    5   25 1    
    28    6   26 1    
    29    6   27 1    
    30    7   28 1    
    31    7   29 1    
    32    8   30 1    
    33    8   31 1    
    34    9   32 1    
    35    9   33 1    
    36   10   34 1    
    37   10   35 1    
    38   11   36 1    
    39   12   37 1    
    40   12   38 1    
    41   13   39 1    
    42   15   40 1    
    43   16   41 1    
    44   17   42 1    
    45   18   43 1    
    46   19   44 1    
@<TRIPOS>SUBSTRUCTURE
     1 MOL         1 PERM              0 ****  ****    0 ROOT 
@<TRIPOS>NORMAL
@<TRIPOS>ALT_TYPE
MMFF94_ALT_TYPE_SET 
MMFF94 6 CR 7 CR 8 CR 9 CR 10 CR 12 CR 13 CR 15 CR 17 CR 19 CR 21 CONN \
1 C=ON 2 C=C 3 C=C 23 HC 24 HC 26 HC 27 HC 28 HC 29 HC \
30 HC 31 HC 32 HC 33 HC 34 HC 35 HC 37 HC 38 HC 39 HC \
40 HC 42 HC 44 HC 25 HNCO 36 HNR+ 41 HOR 43 HOR 22 O=CN \
20 O=CN 14 OR 16 OR 18 OR 11 NR+ 4 NC=O 5 NC=O 
