#	Name:			3d6q_ligand
#	Creating user name:	suminyi
#	Creation time:		Sun Sep 30 06:48:53 2018

#	Modifying user name:	suminyi
#	Modification time:	Sun Sep 30 06:48:53 2018

@<TRIPOS>MOLECULE
3d6q_ligand
   44    46     1     1     0
SMALL
MMFF94_CHARGES


@<TRIPOS>ATOM
      1 C4         34.8340   -4.5860   12.4600 C.2       1 U3S         0.6156 
      2 C5         36.0120   -4.5010   13.1970 C.2       1 U3S        -0.1356 
      3 C6         36.8260   -3.3760   13.0620 C.2       1 U3S        -0.0410 
      4 N1         36.4610   -2.3090   12.2020 N.am      1 U3S        -0.4691 
      5 N3         34.4690   -3.5520   11.5980 N.am      1 U3S        -0.4900 
      6 CAV        43.4960   -2.5520   14.1130 C.3       1 U3S         0.0000 
      7 CAK        42.2910   -3.5030   14.1750 C.3       1 U3S         0.0000 
      8 CAM        40.9410   -2.7630   14.0450 C.3       1 U3S         0.5030 
      9 CAJ        43.4070   -1.4530   15.1850 C.3       1 U3S         0.0000 
     10 CAL        41.9510   -1.1790   15.5870 C.3       1 U3S         0.5030 
     11 NBA        41.0360   -1.3370   14.4350 N.4       1 U3S        -0.9590 
     12 C5'        39.7650   -0.7660   14.9250 C.3       1 U3S         0.5030 
     13 C4'        38.5330   -0.8320   13.9700 C.3       1 U3S         0.2800 
     14 O4'        38.6600   -1.3680   12.6150 O.3       1 U3S        -0.5600 
     15 C3'        38.0070    0.5470   13.6410 C.3       1 U3S         0.2800 
     16 O3'        37.4740    1.2430   14.7580 O.3       1 U3S        -0.6800 
     17 C2'        36.8730    0.2110   12.7040 C.3       1 U3S         0.2800 
     18 O2'        36.8750    1.2950   11.7730 O.3       1 U3S        -0.6800 
     19 C1'        37.3430   -1.1040   12.0380 C.3       1 U3S         0.5801 
     20 O4         34.1020   -5.5690   12.5560 O.2       1 U3S        -0.5700 
     21 C2         35.2700   -2.4080   11.4660 C.2       1 U3S         0.6900 
     22 O2         34.9100   -1.5120   10.7080 O.2       1 U3S        -0.5700 
     23 H1         36.2958   -5.3060   13.8733 H         1 U3S         0.1500 
     24 H2         37.7559   -3.3163   13.6256 H         1 U3S         0.1500 
     25 H3         33.6250   -3.6272   11.0670 H         1 U3S         0.3700 
     26 H4         43.5272   -2.0800   13.1199 H         1 U3S         0.0000 
     27 H5         44.4169   -3.1321   14.2724 H         1 U3S         0.0000 
     28 H6         42.3103   -4.0334   15.1385 H         1 U3S         0.0000 
     29 H7         42.3741   -4.2305   13.3542 H         1 U3S         0.0000 
     30 H8         40.2035   -3.2578   14.6940 H         1 U3S         0.0000 
     31 H9         40.6062   -2.8210   12.9988 H         1 U3S         0.0000 
     32 H10        43.8483   -0.5276   14.7864 H         1 U3S         0.0000 
     33 H11        43.9693   -1.7740   16.0742 H         1 U3S         0.0000 
     34 H12        41.8722   -0.1503   15.9686 H         1 U3S         0.0000 
     35 H13        41.6581   -1.8865   16.3767 H         1 U3S         0.0000 
     36 H14        41.3670   -0.8086   13.6430 H         1 U3S         0.4500 
     37 H15        39.9468    0.2939   15.1562 H         1 U3S         0.0000 
     38 H16        39.4965   -1.3017   15.8474 H         1 U3S         0.0000 
     39 H17        37.7670   -1.4154   14.5019 H         1 U3S         0.0000 
     40 H18        38.7806    1.1607   13.1564 H         1 U3S         0.0000 
     41 H19        37.1640    2.0967   14.4793 H         1 U3S         0.4000 
     42 H20        35.9007    0.0980   13.2058 H         1 U3S         0.0000 
     43 H21        36.1824    1.1651   11.1359 H         1 U3S         0.4000 
     44 H22        37.4443   -0.9218   10.9579 H         1 U3S         0.0000 
@<TRIPOS>BOND
     1    2    1 1    
     2    5    1 am   
     3    1   20 2    
     4    3    2 2    
     5    4    3 1    
     6   19    4 1    
     7    4   21 am   
     8   21    5 am   
     9    7    6 1    
    10    9    6 1    
    11    8    7 1    
    12   11    8 1    
    13   10    9 1    
    14   11   10 1    
    15   12   11 1    
    16   13   12 1    
    17   14   13 1    
    18   13   15 1    
    19   14   19 1    
    20   15   16 1    
    21   15   17 1    
    22   17   18 1    
    23   17   19 1    
    24   21   22 2    
    25    2   23 1    
    26    3   24 1    
    27    5   25 1    
    28    6   26 1    
    29    6   27 1    
    30    7   28 1    
    31    7   29 1    
    32    8   30 1    
    33    8   31 1    
    34    9   32 1    
    35    9   33 1    
    36   10   34 1    
    37   10   35 1    
    38   11   36 1    
    39   12   37 1    
    40   12   38 1    
    41   13   39 1    
    42   15   40 1    
    43   16   41 1    
    44   17   42 1    
    45   18   43 1    
    46   19   44 1    
@<TRIPOS>SUBSTRUCTURE
     1 U3S         1 PERM              0 ****  ****    0 ROOT 
@<TRIPOS>NORMAL
@<TRIPOS>ALT_TYPE
MMFF94_ALT_TYPE_SET 
MMFF94 6 CR 7 CR 8 CR 9 CR 10 CR 12 CR 13 CR 15 CR 17 CR 19 CR 21 CONN \
1 C=ON 2 C=C 3 C=C 23 HC 24 HC 26 HC 27 HC 28 HC 29 HC \
30 HC 31 HC 32 HC 33 HC 34 HC 35 HC 37 HC 38 HC 39 HC \
40 HC 42 HC 44 HC 25 HNCO 36 HNR+ 41 HOR 43 HOR 22 O=CN \
20 O=CN 14 OR 16 OR 18 OR 11 NR+ 4 NC=O 5 NC=O 
