#	Name:			3gv9_ligand
#	Creating user name:	suminyi
#	Creation time:		Sun Sep 30 06:51:10 2018

#	Modifying user name:	suminyi
#	Modification time:	Sun Sep 30 06:51:10 2018

@<TRIPOS>MOLECULE
3gv9_ligand
   18    18     1     1     0
SMALL
MMFF94_CHARGES


@<TRIPOS>ATOM
      1 O11       -34.3530    5.2550   13.4620 O.2       1 MOL        -0.5700 
      2 C10       -34.9460    4.2980   13.9120 C.2       1 MOL         0.5690 
      3 C12       -35.3000    3.1120   13.0600 C.3       1 MOL         0.0610 
      4 N9        -35.2660    4.2070   15.2130 N.am      1 MOL        -0.4930 
      5 C3        -35.2890    5.2220   16.1590 C.2       1 MOL         0.0630 
      6 C4        -35.5480    6.5900   15.8740 C.2       1 MOL        -0.1500 
      7 C5        -35.5470    7.3610   17.0060 C.2       1 MOL        -0.1100 
      8 S1        -35.2450    6.4260   18.4440 S.3       1 MOL        -0.0800 
      9 C2        -35.0670    4.9800   17.4960 C.2       1 MOL        -0.1920 
     10 C6        -34.6290    3.7100   18.0820 C.2       1 MOL         1.0320 
     11 O7        -34.4640    2.7600   17.3490 O.co2     1 MOL        -0.9000 
     12 O8        -34.2500    3.6430   19.2310 O.co2     1 MOL        -0.9000 
     13 H1        -34.9190    2.1920   13.5030 H         1 MOL         0.0000 
     14 H2        -34.8710    3.2290   12.0630 H         1 MOL         0.0000 
     15 H3        -36.3840    3.0370   12.9630 H         1 MOL         0.0000 
     16 H4        -35.4370    3.2670   15.5590 H         1 MOL         0.3700 
     17 H5        -35.7240    6.9450   14.8600 H         1 MOL         0.1500 
     18 H6        -35.7070    8.4260   17.1100 H         1 MOL         0.1500 
@<TRIPOS>BOND
     1    1    2 2    
     2    2    3 1    
     3    2    4 am   
     4    4    5 1    
     5    5    6 1    
     6    5    9 2    
     7    6    7 2    
     8    7    8 1    
     9    8    9 1    
    10    9   10 1    
    11   10   11 ar   
    12   10   12 ar   
    13    3   13 1    
    14    3   14 1    
    15    3   15 1    
    16    4   16 1    
    17    6   17 1    
    18    7   18 1    
@<TRIPOS>SUBSTRUCTURE
     1 MOL         1 PERM              0 ****  ****    0 ROOT 
@<TRIPOS>NORMAL
@<TRIPOS>ALT_TYPE
MMFF94_ALT_TYPE_SET 
MMFF94 3 CR 7 C5A 9 C5A 5 C5B 6 C5B 10 CO2M 2 C=ON 13 HC 14 HC 15 HC \
17 HC 18 HC 16 HNCC 11 O2CM 12 O2CM 1 O=CN 4 NC=O 8 STHI \

