#	Name:			3d4z_ligand
#	Creating user name:	suminyi
#	Creation time:		Sun Sep 30 06:51:11 2018

#	Modifying user name:	suminyi
#	Modification time:	Sun Sep 30 06:51:11 2018

@<TRIPOS>MOLECULE
3d4z_ligand
   26    27     1     1     0
SMALL
MMFF94_CHARGES


@<TRIPOS>ATOM
      1 C1         30.3910   65.8060    9.7370 C.2       1 MOL         0.0065 
      2 C2         31.8380   65.5830    9.3370 C.3       1 MOL         0.4600 
      3 N10        29.5010   66.4940    8.9630 N.pl3     1 MOL         0.0476 
      4 C3         32.2310   66.4000    8.0640 C.3       1 MOL         0.2800 
      5 C4         31.1030   66.3610    7.0040 C.3       1 MOL         0.2800 
      6 C5         29.6980   66.7780    7.5380 C.3       1 MOL         0.2556 
      7 C6         28.6330   66.0860    6.6470 C.3       1 MOL         0.2800 
      8 C7         28.6230   66.1590   10.9520 C.2       1 MOL         0.0772 
      9 C8         28.4470   66.8370    9.7820 C.2       1 MOL        -0.3016 
     10 N1         29.7900   65.4610   10.8850 N.2       1 MOL        -0.5653 
     11 O3         33.4010   65.8240    7.4520 O.3       1 MOL        -0.6800 
     12 O2         32.6730   66.0230   10.4100 O.3       1 MOL        -0.6800 
     13 O4         31.4040   67.2310    5.9070 O.3       1 MOL        -0.6800 
     14 O6         27.3730   65.9840    7.3340 O.3       1 MOL        -0.6800 
     15 H1         32.0070   64.5190    9.1640 H         1 MOL         0.0000 
     16 H2         32.4250   67.4320    8.3560 H         1 MOL         0.0000 
     17 H3         31.0700   65.3280    6.6450 H         1 MOL         0.0000 
     18 H4         29.6060   67.8590    7.4140 H         1 MOL         0.0000 
     19 H5         28.9710   65.0730    6.4080 H         1 MOL         0.0000 
     20 H6         28.5200   66.6410    5.7140 H         1 MOL         0.0000 
     21 H7         28.0080   66.1230   11.8420 H         1 MOL         0.1500 
     22 H8         27.6580   67.5050    9.4860 H         1 MOL         0.1500 
     23 H9         34.0730   66.5030    7.1350 H         1 MOL         0.4000 
     24 H10        33.6500   66.1440   10.1280 H         1 MOL         0.4000 
     25 H11        32.3950   67.2400    5.7130 H         1 MOL         0.4000 
     26 H12        27.6620   66.1010    8.2750 H         1 MOL         0.4000 
@<TRIPOS>BOND
     1    1    2 1    
     2    1    3 1    
     3    1   10 2    
     4    2    4 1    
     5    2   12 1    
     6    3    6 1    
     7    3    9 1    
     8    4    5 1    
     9    4   11 1    
    10    5    6 1    
    11    5   13 1    
    12    6    7 1    
    13    7   14 1    
    14    9    8 2    
    15    8   10 1    
    16    2   15 1    
    17    4   16 1    
    18    5   17 1    
    19    6   18 1    
    20    7   19 1    
    21    7   20 1    
    22    8   21 1    
    23    9   22 1    
    24   11   23 1    
    25   12   24 1    
    26   13   25 1    
    27   14   26 1    
@<TRIPOS>SUBSTRUCTURE
     1 MOL         1 PERM              0 ****  ****    0 ROOT 
@<TRIPOS>NORMAL
@<TRIPOS>ALT_TYPE
MMFF94_ALT_TYPE_SET 
MMFF94 2 CR 4 CR 5 CR 6 CR 7 CR 1 C5A 9 C5A 8 C5B 15 HC 16 HC 17 HC \
18 HC 19 HC 20 HC 21 HC 22 HC 23 HOR 24 HOR 25 HOR 26 HOR \
11 OR 12 OR 13 OR 14 OR 3 NPYL 10 N5B 
