#	Name:			3d4z_ligand
#	Creating user name:	suminyi
#	Creation time:		Sun Sep 30 06:49:00 2018

#	Modifying user name:	suminyi
#	Modification time:	Sun Sep 30 06:49:00 2018

@<TRIPOS>MOLECULE
3d4z_ligand
   26    27     1     1     0
SMALL
MMFF94_CHARGES


@<TRIPOS>ATOM
      1 C1         30.7970   65.9420    9.6970 C.2       1 GIM         0.0065 
      2 C2         31.9610   65.3180    8.9250 C.3       1 GIM         0.4600 
      3 N10        29.8090   66.5940    8.9820 N.pl3     1 GIM         0.0476 
      4 C3         32.3650   66.3030    7.8260 C.3       1 GIM         0.2800 
      5 C4         31.1990   66.4350    6.8650 C.3       1 GIM         0.2800 
      6 C5         29.8750   66.8470    7.5350 C.3       1 GIM         0.2556 
      7 C6         28.7490   66.0830    6.7850 C.3       1 GIM         0.2800 
      8 C7         29.3520   66.6560   11.1160 C.2       1 GIM         0.0772 
      9 C8         28.8980   66.9960    9.9080 C.2       1 GIM        -0.3016 
     10 N1         30.5160   65.9940   10.9800 N.2       1 GIM        -0.5653 
     11 O3         33.4910   65.6800    7.1400 O.3       1 GIM        -0.6800 
     12 O2         33.0570   64.9380    9.7170 O.3       1 GIM        -0.6800 
     13 O4         31.4880   67.4510    5.8940 O.3       1 GIM        -0.6800 
     14 O6         27.4750   66.5040    7.2990 O.3       1 GIM        -0.6800 
     15 H1         31.5867   64.4026    8.4435 H         1 GIM         0.0000 
     16 H2         32.6423   67.2830    8.2416 H         1 GIM         0.0000 
     17 H3         31.0572   65.4675    6.3612 H         1 GIM         0.0000 
     18 H4         29.7357   67.9278    7.3849 H         1 GIM         0.0000 
     19 H5         28.8703   65.0009    6.9413 H         1 GIM         0.0000 
     20 H6         28.8048   66.3067    5.7094 H         1 GIM         0.0000 
     21 H7         28.8592   66.8787   12.0612 H         1 GIM         0.1500 
     22 H8         27.9594   67.5074    9.6997 H         1 GIM         0.1500 
     23 H9         34.2210   65.5976    7.7423 H         1 GIM         0.4000 
     24 H10        33.7124   64.5215    9.1698 H         1 GIM         0.4000 
     25 H11        32.3013   67.2411    5.4502 H         1 GIM         0.4000 
     26 H12        27.4300   66.3106    8.2280 H         1 GIM         0.4000 
@<TRIPOS>BOND
     1    1    2 1    
     2    1    3 1    
     3    1   10 2    
     4    2    4 1    
     5    2   12 1    
     6    3    6 1    
     7    3    9 1    
     8    4    5 1    
     9    4   11 1    
    10    5    6 1    
    11    5   13 1    
    12    6    7 1    
    13    7   14 1    
    14    9    8 2    
    15    8   10 1    
    16    2   15 1    
    17    4   16 1    
    18    5   17 1    
    19    6   18 1    
    20    7   19 1    
    21    7   20 1    
    22    8   21 1    
    23    9   22 1    
    24   11   23 1    
    25   12   24 1    
    26   13   25 1    
    27   14   26 1    
@<TRIPOS>SUBSTRUCTURE
     1 GIM         1 PERM              0 ****  ****    0 ROOT 
@<TRIPOS>NORMAL
@<TRIPOS>ALT_TYPE
MMFF94_ALT_TYPE_SET 
MMFF94 2 CR 4 CR 5 CR 6 CR 7 CR 1 C5A 9 C5A 8 C5B 15 HC 16 HC 17 HC \
18 HC 19 HC 20 HC 21 HC 22 HC 23 HOR 24 HOR 25 HOR 26 HOR \
11 OR 12 OR 13 OR 14 OR 3 NPYL 10 N5B 
