#	Name:			3tsk_ligand
#	Creating user name:	suminyi
#	Creation time:		Sun Sep 30 06:49:07 2018

#	Modifying user name:	suminyi
#	Modification time:	Sun Sep 30 06:49:07 2018

@<TRIPOS>MOLECULE
3tsk_ligand
   71    73     1     1     0
SMALL
MMFF94_CHARGES


@<TRIPOS>ATOM
      1 O2          9.7400   26.2240    4.4400 O.2       1 QEG        -0.5700 
      2 S7          2.4460   22.3030    8.4120 S.3       1 QEG        -0.0800 
      3 C11         8.5610   26.3170    4.3850 C.2       1 QEG         0.5690 
      4 C12         7.7730   25.1900    3.7690 C.3       1 QEG         0.0610 
      5 C13         7.6830   23.8750    4.5200 C.3       1 QEG         0.1435 
      6 C14         5.1640   24.2160    4.5080 C.ar      1 QEG        -0.1500 
      7 C15         4.8770   22.7090    6.7400 C.ar      1 QEG        -0.1500 
      8 C16         3.7230   23.2350    6.1920 C.ar      1 QEG         0.0530 
      9 C17         3.8940   24.0030    5.0500 C.ar      1 QEG        -0.1500 
     10 C18         2.3880   22.9330    6.8600 C.2       1 QEG        -0.0130 
     11 C19         1.0410   22.9600    6.6160 C.2       1 QEG        -0.1500 
     12 C20         0.2250   22.4620    7.6840 C.2       1 QEG        -0.0540 
     13 C21        -1.2390   22.4170    7.7510 C.ar      1 QEG         0.0540 
     14 C22        -1.8500   21.2850    8.1820 C.ar      1 QEG        -0.1500 
     15 C23        -3.2140   21.2120    8.2760 C.ar      1 QEG        -0.1500 
     16 C24        -3.9630   22.3130    7.9830 C.ar      1 QEG        -0.1500 
     17 C25        -3.3530   23.4680    7.5780 C.ar      1 QEG        -0.1500 
     18 C26        -1.9860   23.5290    7.4710 C.ar      1 QEG        -0.1500 
     19 C27         6.3030   23.6610    5.0810 C.ar      1 QEG        -0.1435 
     20 C28         6.1420   22.9080    6.2190 C.ar      1 QEG        -0.1500 
     21 C29         0.8590   22.0460    8.8030 C.2       1 QEG        -0.1100 
     22 N2          7.8800   27.3640    4.8260 N.am      1 QEG        -0.7301 
     23 C7          8.4140   28.5690    5.4320 C.3       1 QEG         0.3611 
     24 C6          7.7580   28.8110    6.7840 C.2       1 QEG         0.5690 
     25 O1          6.6890   28.3540    7.1000 O.2       1 QEG        -0.5700 
     26 C8          8.2420   29.7180    4.4090 C.3       1 QEG         0.0000 
     27 C9          9.5000   30.5670    4.1040 C.3       1 QEG         0.0610 
     28 C10         9.5690   31.4830    2.8770 C.2       1 QEG         0.5690 
     29 O4E         8.8960   31.3830    1.8950 O.2       1 QEG        -0.5700 
     30 N4         10.4770   32.4300    2.9030 N.am      1 QEG        -0.8000 
     31 N1          8.4220   29.5400    7.6470 N.am      1 QEG        -0.7301 
     32 C2          7.8550   29.7800    8.9520 C.3       1 QEG         0.3611 
     33 C1          6.5850   30.5830    8.9020 C.2       1 QEG         0.5690 
     34 O9          6.4480   31.5120    8.1780 O.2       1 QEG        -0.5700 
     35 C3          8.8210   30.4380    9.8880 C.3       1 QEG         0.0000 
     36 C4          8.9700   29.8870   11.2870 C.3       1 QEG        -0.1060 
     37 C5          9.8300   30.4360   12.3560 C.2       1 QEG         0.9060 
     38 O8E         9.8160   29.8460   13.4300 O.co2     1 QEG        -0.9000 
     39 O8         10.5260   31.4550   12.2140 O.co2     1 QEG        -0.9000 
     40 N9          5.6170   30.1980    9.6890 N.am      1 QEG        -0.8000 
     41 H1          8.2256   24.9745    2.7899 H         1 QEG         0.0000 
     42 H2          6.7446   25.5531    3.6257 H         1 QEG         0.0000 
     43 H3          8.4087   23.8836    5.3466 H         1 QEG         0.0000 
     44 H4          7.9217   23.0514    3.8310 H         1 QEG         0.0000 
     45 H5          5.2639   24.8287    3.6194 H         1 QEG         0.1500 
     46 H6          4.7849   22.1027    7.6339 H         1 QEG         0.1500 
     47 H7          3.0284   24.4452    4.5701 H         1 QEG         0.1500 
     48 H8          0.6217   23.3314    5.6821 H         1 QEG         0.1500 
     49 H9         -1.2492   20.4253    8.4561 H         1 QEG         0.1500 
     50 H10        -3.6934   20.2886    8.5802 H         1 QEG         0.1500 
     51 H11        -5.0427   22.2728    8.0711 H         1 QEG         0.1500 
     52 H12        -3.9520   24.3396    7.3403 H         1 QEG         0.1500 
     53 H13        -1.5021   24.4502    7.1673 H         1 QEG         0.1500 
     54 H14         7.0053   22.4708    6.7074 H         1 QEG         0.1500 
     55 H15         0.4353   21.6457    9.7229 H         1 QEG         0.1500 
     56 H16         6.8856   27.3187    4.7304 H         1 QEG         0.3700 
     57 H17         9.4910   28.4316    5.6088 H         1 QEG         0.0000 
     58 H18         7.4671   30.3963    4.7957 H         1 QEG         0.0000 
     59 H19         7.9013   29.2739    3.4621 H         1 QEG         0.0000 
     60 H20        10.3370   29.8594    4.0106 H         1 QEG         0.0000 
     61 H21         9.6603   31.2108    4.9814 H         1 QEG         0.0000 
     62 H22        10.5675   33.0573    2.1295 H         1 QEG         0.3700 
     63 H23        11.0785   32.5243    3.6963 H         1 QEG         0.3700 
     64 H24         9.3120   29.9258    7.4038 H         1 QEG         0.3700 
     65 H25         7.6049   28.7957    9.3745 H         1 QEG         0.0000 
     66 H26         8.5112   31.4889    9.9859 H         1 QEG         0.0000 
     67 H27         9.8128   30.3906    9.4147 H         1 QEG         0.0000 
     68 H28         9.3075   28.8488   11.1521 H         1 QEG         0.0000 
     69 H29         7.9532   29.8905   11.7066 H         1 QEG         0.0000 
     70 H30         4.7501   30.6964    9.6960 H         1 QEG         0.3700 
     71 H31         5.7425   29.4047   10.2848 H         1 QEG         0.3700 
@<TRIPOS>BOND
     1    3    1 2    
     2   10    2 1    
     3    2   21 1    
     4    4    3 1    
     5    3   22 am   
     6    5    4 1    
     7   19    5 1    
     8    9    6 ar   
     9    6   19 ar   
    10    8    7 ar   
    11    7   20 ar   
    12    8    9 ar   
    13    8   10 1    
    14   10   11 2    
    15   11   12 1    
    16   12   13 1    
    17   12   21 2    
    18   13   14 ar   
    19   13   18 ar   
    20   14   15 ar   
    21   15   16 ar   
    22   16   17 ar   
    23   17   18 ar   
    24   19   20 ar   
    25   22   23 1    
    26   23   24 1    
    27   23   26 1    
    28   24   25 2    
    29   24   31 am   
    30   26   27 1    
    31   27   28 1    
    32   28   29 2    
    33   28   30 am   
    34   31   32 1    
    35   32   33 1    
    36   32   35 1    
    37   33   34 2    
    38   33   40 am   
    39   35   36 1    
    40   36   37 1    
    41   37   38 ar   
    42   37   39 ar   
    43    4   41 1    
    44    4   42 1    
    45    5   43 1    
    46    5   44 1    
    47    6   45 1    
    48    7   46 1    
    49    9   47 1    
    50   11   48 1    
    51   14   49 1    
    52   15   50 1    
    53   16   51 1    
    54   17   52 1    
    55   18   53 1    
    56   20   54 1    
    57   21   55 1    
    58   22   56 1    
    59   23   57 1    
    60   26   58 1    
    61   26   59 1    
    62   27   60 1    
    63   27   61 1    
    64   30   62 1    
    65   30   63 1    
    66   31   64 1    
    67   32   65 1    
    68   35   66 1    
    69   35   67 1    
    70   36   68 1    
    71   36   69 1    
    72   40   70 1    
    73   40   71 1    
@<TRIPOS>SUBSTRUCTURE
     1 QEG         1 PERM              0 ****  ****    0 ROOT 
@<TRIPOS>NORMAL
@<TRIPOS>ALT_TYPE
MMFF94_ALT_TYPE_SET 
MMFF94 4 CR 5 CR 23 CR 26 CR 27 CR 32 CR 35 CR 36 CR 10 C5A 21 C5A 11 C5B \
12 C5B 6 CB 7 CB 8 CB 9 CB 13 CB 14 CB 15 CB 16 CB 17 CB \
18 CB 19 CB 20 CB 37 CO2M 3 C=ON 28 C=ON 24 C=ON 33 C=ON \
41 HC 42 HC 43 HC 44 HC 45 HC 46 HC 47 HC 48 HC 49 HC \
50 HC 51 HC 52 HC 53 HC 54 HC 55 HC 57 HC 58 HC 59 HC \
60 HC 61 HC 65 HC 66 HC 67 HC 68 HC 69 HC 56 HNCO 62 HNCO \
63 HNCO 64 HNCO 70 HNCO 71 HNCO 38 O2CM 39 O2CM 1 O=CN \
29 O=CN 25 O=CN 34 O=CN 22 NC=O 30 NC=O 31 NC=O 40 NC=O \
2 STHI 
