#	Name:			3pww_ligand
#	Creating user name:	suminyi
#	Creation time:		Sun Sep 30 06:51:08 2018

#	Modifying user name:	suminyi
#	Modification time:	Sun Sep 30 06:51:08 2018

@<TRIPOS>MOLECULE
3pww_ligand
  100   104     1     1     0
SMALL
MMFF94_CHARGES


@<TRIPOS>ATOM
      1 C          -3.8850    3.0090    6.2700 C.2       1 MOL         0.5438 
      2 O          -3.8370    3.7700    5.3170 O.2       1 MOL        -0.5700 
      3 N1         -5.7610    1.5370    5.5550 N.ar      1 MOL        -0.6200 
      4 C2         -4.6570    1.6930    6.3430 C.ar      1 MOL         0.3962 
      5 C3         -4.3160    0.7300    7.3040 C.ar      1 MOL        -0.1500 
      6 C4         -5.0720   -0.4330    7.4250 C.ar      1 MOL        -0.1500 
      7 C5         -6.9790   -1.7390    6.7120 C.ar      1 MOL        -0.1500 
      8 C6         -8.0920   -1.8900    5.8870 C.ar      1 MOL        -0.1500 
      9 C7         -8.4160   -0.8990    4.9620 C.ar      1 MOL        -0.1500 
     10 C8         -7.6130    0.2380    4.8550 C.ar      1 MOL        -0.1500 
     11 C4A        -6.1870   -0.5910    6.6090 C.ar      1 MOL         0.0000 
     12 C8A        -6.4940    0.4050    5.6700 C.ar      1 MOL         0.3100 
     13 N          -3.3620    3.4460    7.4380 N.am      1 MOL        -0.7301 
     14 CA         -3.0600    4.8730    7.7390 C.3       1 MOL         0.3611 
     15 C1         -2.1340    5.0400    8.9510 C.2       1 MOL         0.5690 
     16 O1         -2.1790    5.9920    9.7150 O.2       1 MOL        -0.5700 
     17 CB         -4.3710    5.6980    7.9330 C.3       1 MOL         0.0610 
     18 CG         -4.9920    6.1670    6.6390 C.2       1 MOL         0.5690 
     19 OD1        -4.6130    7.1430    6.0350 O.2       1 MOL        -0.5700 
     20 ND2        -6.0540    5.5040    6.1910 N.am      1 MOL        -0.8000 
     21 C9          1.0280    4.7060   10.0600 C.3       1 MOL         0.2800 
     22 O2          1.8240    4.6970   11.2600 O.3       1 MOL        -0.6800 
     23 CA1        -0.3190    3.9630   10.3020 C.3       1 MOL         0.3001 
     24 N2         -1.2390    4.0580    9.1550 N.am      1 MOL        -0.7301 
     25 CB1        -0.1140    2.4850   10.6860 C.3       1 MOL         0.1435 
     26 CG1        -1.4160    1.6970   10.8230 C.ar      1 MOL        -0.1435 
     27 CD1        -2.5100    2.2130   11.5260 C.ar      1 MOL        -0.1500 
     28 CD2        -1.5180    0.4300   10.2450 C.ar      1 MOL        -0.1500 
     29 CE1        -3.6910    1.4810   11.6270 C.ar      1 MOL        -0.1500 
     30 CE2        -2.6890   -0.3130   10.3720 C.ar      1 MOL        -0.1500 
     31 CZ         -3.7810    0.2130   11.0570 C.ar      1 MOL        -0.1500 
     32 N11         1.7000    7.1580    9.3040 N.4       1 MOL        -0.9590 
     33 CM          0.6490    6.1580    9.7020 C.3       1 MOL         0.5030 
     34 C21         2.7420    7.3830   10.3880 C.3       1 MOL         0.5640 
     35 CC          2.2490    7.7160   11.8040 C.2       1 MOL         0.5690 
     36 O3          1.1070    8.0590   12.0460 O.2       1 MOL        -0.5700 
     37 C31         3.7700    8.4260    9.8830 C.3       1 MOL         0.0000 
     38 C3A         3.1460    9.7690    9.4100 C.3       1 MOL         0.0000 
     39 C41         2.6910   10.6720   10.5860 C.3       1 MOL         0.0000 
     40 C51         2.1570   12.0150   10.0650 C.3       1 MOL         0.0000 
     41 C61         0.9200   11.7570    9.1880 C.3       1 MOL         0.0000 
     42 C71         1.2570   10.8230    8.0070 C.3       1 MOL         0.0000 
     43 C7A         1.9890    9.5140    8.4060 C.3       1 MOL         0.0000 
     44 C81         1.0110    8.4560    8.9510 C.3       1 MOL         0.5030 
     45 N3          3.1860    7.6560   12.7730 N.am      1 MOL        -0.7301 
     46 CD          3.0520    8.0820   14.1730 C.3       1 MOL         0.3001 
     47 C11         4.4130    7.8600   14.8640 C.3       1 MOL         0.0000 
     48 C22         2.0000    7.2380   14.9210 C.3       1 MOL         0.0000 
     49 C32         2.7140    9.5870   14.2770 C.3       1 MOL         0.0000 
     50 H1         -3.4120    0.8370    7.8980 H         1 MOL         0.1500 
     51 H2         -4.7820   -1.2160    8.1250 H         1 MOL         0.1500 
     52 H3         -6.7230   -2.5330    7.4160 H         1 MOL         0.1500 
     53 H4         -8.6800   -2.8050    5.9270 H         1 MOL         0.1500 
     54 H5         -9.2450   -1.0570    4.2730 H         1 MOL         0.1500 
     55 H6         -7.8370    0.9840    4.0990 H         1 MOL         0.1500 
     56 H7         -3.3840    2.8020    8.2150 H         1 MOL         0.3700 
     57 H8         -2.4830    5.2900    6.9060 H         1 MOL         0.0000 
     58 H9         -4.1700    6.6130    8.4920 H         1 MOL         0.0000 
     59 H10        -5.0940    5.1290    8.5200 H         1 MOL         0.0000 
     60 H11        -6.3400    5.7030    5.2510 H         1 MOL         0.3700 
     61 H12        -6.3160    4.6420    6.6350 H         1 MOL         0.3700 
     62 H13         1.5810    4.2480    9.2300 H         1 MOL         0.0000 
     63 H14         2.3040    3.7750   11.3070 H         1 MOL         0.4000 
     64 H15        -0.7990    4.4460   11.1550 H         1 MOL         0.0000 
     65 H16        -1.1550    3.3250    8.4480 H         1 MOL         0.3700 
     66 H17         0.4230    2.4490   11.6330 H         1 MOL         0.0000 
     67 H18         0.5290    2.0060    9.9430 H         1 MOL         0.0000 
     68 H19        -2.4530    3.1950   11.9860 H         1 MOL         0.1500 
     69 H20        -0.6830    0.0060    9.6820 H         1 MOL         0.1500 
     70 H21        -4.5440    1.8990   12.1500 H         1 MOL         0.1500 
     71 H22        -2.7440   -1.3020    9.9140 H         1 MOL         0.1500 
     72 H23        -4.7010   -0.3640   11.1370 H         1 MOL         0.1500 
     73 H24         2.1860    6.7500    8.4480 H         1 MOL         0.4500 
     74 H25         0.0850    6.5800   10.5360 H         1 MOL         0.0000 
     75 H26        -0.0140    6.1050    8.8390 H         1 MOL         0.0000 
     76 H27         3.2410    6.4170   10.5030 H         1 MOL         0.0000 
     77 H28         4.3010    7.9750    9.0410 H         1 MOL         0.0000 
     78 H29         4.5180    8.6120   10.6430 H         1 MOL         0.0000 
     79 H30         3.9340   10.3190    8.8880 H         1 MOL         0.0000 
     80 H31         3.5150   10.8440   11.2720 H         1 MOL         0.0000 
     81 H32         1.8940   10.2070   11.1610 H         1 MOL         0.0000 
     82 H33         2.9310   12.5300    9.4880 H         1 MOL         0.0000 
     83 H34         1.8880   12.6590   10.9050 H         1 MOL         0.0000 
     84 H35         0.5400   12.7080    8.8070 H         1 MOL         0.0000 
     85 H36         0.1270   11.3120    9.7960 H         1 MOL         0.0000 
     86 H37         1.8870   11.3710    7.3020 H         1 MOL         0.0000 
     87 H38         0.3270   10.5730    7.4950 H         1 MOL         0.0000 
     88 H39         2.4080    9.0850    7.4940 H         1 MOL         0.0000 
     89 H40         0.5200    8.8210    9.8580 H         1 MOL         0.0000 
     90 H41         0.2500    8.2260    8.2000 H         1 MOL         0.0000 
     91 H42         4.0780    7.2690   12.4890 H         1 MOL         0.3700 
     92 H43         4.3890    8.1960   15.9040 H         1 MOL         0.0000 
     93 H44         5.1940    8.4160   14.3460 H         1 MOL         0.0000 
     94 H45         4.6840    6.8040   14.8610 H         1 MOL         0.0000 
     95 H46         1.9870    7.4820   15.9850 H         1 MOL         0.0000 
     96 H47         2.2140    6.1740   14.8110 H         1 MOL         0.0000 
     97 H48         1.0000    7.4240   14.5300 H         1 MOL         0.0000 
     98 H49         2.6920    9.9080   15.3220 H         1 MOL         0.0000 
     99 H50         1.7330    9.8000   13.8460 H         1 MOL         0.0000 
    100 H51         3.4570   10.1900   13.7500 H         1 MOL         0.0000 
@<TRIPOS>BOND
     1    1    2 2    
     2    1    4 1    
     3   13    1 am   
     4    4    3 ar   
     5    3   12 ar   
     6    4    5 ar   
     7    5    6 ar   
     8    6   11 ar   
     9    7    8 ar   
    10   11    7 ar   
    11    9    8 ar   
    12   10    9 ar   
    13   12   10 ar   
    14   12   11 ar   
    15   14   13 1    
    16   15   14 1    
    17   14   17 1    
    18   15   16 2    
    19   24   15 am   
    20   17   18 1    
    21   18   19 2    
    22   18   20 am   
    23   21   22 1    
    24   23   21 1    
    25   21   33 1    
    26   23   24 1    
    27   23   25 1    
    28   25   26 1    
    29   26   27 ar   
    30   26   28 ar   
    31   27   29 ar   
    32   28   30 ar   
    33   29   31 ar   
    34   30   31 ar   
    35   33   32 1    
    36   32   34 1    
    37   32   44 1    
    38   34   35 1    
    39   34   37 1    
    40   35   36 2    
    41   35   45 am   
    42   37   38 1    
    43   38   39 1    
    44   38   43 1    
    45   39   40 1    
    46   40   41 1    
    47   41   42 1    
    48   42   43 1    
    49   43   44 1    
    50   45   46 1    
    51   46   47 1    
    52   46   48 1    
    53   46   49 1    
    54    5   50 1    
    55    6   51 1    
    56    7   52 1    
    57    8   53 1    
    58    9   54 1    
    59   10   55 1    
    60   13   56 1    
    61   14   57 1    
    62   17   58 1    
    63   17   59 1    
    64   20   60 1    
    65   20   61 1    
    66   21   62 1    
    67   22   63 1    
    68   23   64 1    
    69   24   65 1    
    70   25   66 1    
    71   25   67 1    
    72   27   68 1    
    73   28   69 1    
    74   29   70 1    
    75   30   71 1    
    76   31   72 1    
    77   32   73 1    
    78   33   74 1    
    79   33   75 1    
    80   34   76 1    
    81   37   77 1    
    82   37   78 1    
    83   38   79 1    
    84   39   80 1    
    85   39   81 1    
    86   40   82 1    
    87   40   83 1    
    88   41   84 1    
    89   41   85 1    
    90   42   86 1    
    91   42   87 1    
    92   43   88 1    
    93   44   89 1    
    94   44   90 1    
    95   45   91 1    
    96   47   92 1    
    97   47   93 1    
    98   47   94 1    
    99   48   95 1    
   100   48   96 1    
   101   48   97 1    
   102   49   98 1    
   103   49   99 1    
   104   49  100 1    
@<TRIPOS>SUBSTRUCTURE
     1 MOL         1 PERM              0 ****  ****    0 ROOT 
@<TRIPOS>NORMAL
@<TRIPOS>ALT_TYPE
MMFF94_ALT_TYPE_SET 
MMFF94 14 CR 17 CR 21 CR 23 CR 25 CR 33 CR 34 CR 37 CR 38 CR 39 CR 40 CR \
41 CR 42 CR 43 CR 44 CR 46 CR 47 CR 48 CR 49 CR 4 CB \
5 CB 6 CB 7 CB 8 CB 9 CB 10 CB 11 CB 12 CB 26 CB 27 CB \
28 CB 29 CB 30 CB 31 CB 1 C=ON 18 C=ON 15 C=ON 35 C=ON \
50 HC 51 HC 52 HC 53 HC 54 HC 55 HC 57 HC 58 HC 59 HC \
62 HC 64 HC 66 HC 67 HC 68 HC 69 HC 70 HC 71 HC 72 HC \
74 HC 75 HC 76 HC 77 HC 78 HC 79 HC 80 HC 81 HC 82 HC \
83 HC 84 HC 85 HC 86 HC 87 HC 88 HC 89 HC 90 HC 92 HC \
93 HC 94 HC 95 HC 96 HC 97 HC 98 HC 99 HC 100 HC 56 HNCO \
60 HNCO 61 HNCO 65 HNCO 91 HNCO 73 HNR+ 63 HOR 2 O=CN \
19 O=CN 16 O=CN 36 O=CN 22 OR 3 NPYD 32 NR+ 13 NC=O \
20 NC=O 24 NC=O 45 NC=O
