#	Name:			4j28_ligand
#	Creating user name:	suminyi
#	Creation time:		Sun Sep 30 06:51:11 2018

#	Modifying user name:	suminyi
#	Modification time:	Sun Sep 30 06:51:11 2018

@<TRIPOS>MOLECULE
4j28_ligand
   33    35     1     1     0
SMALL
MMFF94_CHARGES


@<TRIPOS>ATOM
      1 OAD       -14.5290   11.9190   31.0780 O.3       1 MOL        -0.6800 
      2 CAG       -15.2850   11.0640   31.9630 C.3       1 MOL         0.2800 
      3 CAA       -15.2190    9.5820   31.5580 C.3       1 MOL         0.2800 
      4 OAC       -15.1960    9.4620   30.1310 O.3       1 MOL        -0.6800 
      5 CAF       -16.4880    9.0120   32.2150 C.3       1 MOL         0.5030 
      6 CAB       -16.8320    7.5880   31.7560 C.3       1 MOL         0.0000 
      7 NAH       -17.5570   10.0500   32.0180 N.4       1 MOL        -0.9060 
      8 CAE       -16.8020   11.3620   31.8980 C.3       1 MOL         0.6830 
      9 CAP       -17.1890   12.4460   32.8710 C.2       1 MOL         0.0065 
     10 NAQ       -17.9990   13.5190   32.5440 N.pl3     1 MOL         0.0332 
     11 CAM       -18.0320   14.2630   33.6480 C.ar      1 MOL        -0.1516 
     12 CAN       -18.6230   15.5040   33.8490 C.ar      1 MOL        -0.1500 
     13 CAI       -18.5070   16.0710   35.1230 C.ar      1 MOL        -0.1500 
     14 CAJ       -17.8230   15.3910   36.1440 C.ar      1 MOL        -0.1500 
     15 CAK       -17.2330   14.1450   35.8970 C.ar      1 MOL        -0.1500 
     16 CAL       -17.3460   13.6100   34.6210 C.ar      1 MOL         0.2272 
     17 NAO       -16.8220   12.4700   34.1740 N.2       1 MOL        -0.5653 
     18 H1        -13.5320   11.8950   31.3400 H         1 MOL         0.4000 
     19 H2        -14.9270   11.1670   32.9940 H         1 MOL         0.0000 
     20 H3        -14.3510    9.0920   31.9620 H         1 MOL         0.0000 
     21 H4        -14.2920    9.7960   29.9280 H         1 MOL         0.4000 
     22 H5        -16.3050    8.9720   33.2990 H         1 MOL         0.0000 
     23 H6        -17.5960    7.1690   32.4130 H         1 MOL         0.0000 
     24 H7        -15.9530    6.9410   31.8240 H         1 MOL         0.0000 
     25 H8        -17.1950    7.5780   30.7290 H         1 MOL         0.0000 
     26 H9        -18.2160   10.0260   32.8230 H         1 MOL         0.4500 
     27 H10       -18.1150    9.9080   31.1270 H         1 MOL         0.4500 
     28 H11       -17.0130   11.7150   30.8850 H         1 MOL         0.0000 
     29 H12       -18.6040   13.5960   31.7480 H         1 MOL         0.2700 
     30 H13       -19.1430   16.0240   33.0500 H         1 MOL         0.1500 
     31 H14       -18.9450   17.0490   35.3150 H         1 MOL         0.1500 
     32 H15       -17.7330   15.8390   37.1310 H         1 MOL         0.1500 
     33 H16       -16.6870   13.6040   36.6670 H         1 MOL         0.1500 
@<TRIPOS>BOND
     1    1    2 1    
     2    2    3 1    
     3    2    8 1    
     4    3    4 1    
     5    3    5 1    
     6    5    6 1    
     7    5    7 1    
     8    7    8 1    
     9    8    9 1    
    10    9   10 1    
    11    9   17 2    
    12   10   11 1    
    13   11   12 ar   
    14   11   16 ar   
    15   12   13 ar   
    16   13   14 ar   
    17   14   15 ar   
    18   15   16 ar   
    19   16   17 1    
    20    1   18 1    
    21    2   19 1    
    22    3   20 1    
    23    4   21 1    
    24    5   22 1    
    25    6   23 1    
    26    6   24 1    
    27    6   25 1    
    28    7   26 1    
    29    7   27 1    
    30    8   28 1    
    31   10   29 1    
    32   12   30 1    
    33   13   31 1    
    34   14   32 1    
    35   15   33 1    
@<TRIPOS>SUBSTRUCTURE
     1 MOL         1 PERM              0 ****  ****    0 ROOT 
@<TRIPOS>NORMAL
@<TRIPOS>ALT_TYPE
MMFF94_ALT_TYPE_SET 
MMFF94 2 CR 3 CR 5 CR 6 CR 8 CR 9 C5A 11 C5A 16 C5B 12 CB 13 CB 14 CB \
15 CB 19 HC 20 HC 22 HC 23 HC 24 HC 25 HC 28 HC 30 HC \
31 HC 32 HC 33 HC 29 HPYL 26 HNR+ 27 HNR+ 18 HOR 21 HOR \
1 OR 4 OR 10 NPYL 17 N5B 7 NR+ 
