#	Name:			2qbp_ligand
#	Creating user name:	suminyi
#	Creation time:		Sun Sep 30 06:50:57 2018

#	Modifying user name:	suminyi
#	Modification time:	Sun Sep 30 06:50:57 2018

@<TRIPOS>MOLECULE
2qbp_ligand
   60    63     1     1     0
SMALL
MMFF94_CHARGES


@<TRIPOS>ATOM
      1 S1         44.3740   14.3390    0.4450 S.3       1 MOL        -0.0800 
      2 C2         44.4670   15.7320    1.4880 C.2       1 MOL        -0.1920 
      3 C3         45.2580   15.4810    2.5790 C.2       1 MOL         0.0620 
      4 C4         45.8400   14.1770    2.5540 C.2       1 MOL         0.0570 
      5 C5         45.4530   13.4290    1.4600 C.2       1 MOL        -0.0130 
      6 C6         43.7460   16.9620    1.1740 C.2       1 MOL         1.0320 
      7 O7         43.1270   17.0160    0.1310 O.co2     1 MOL        -0.9000 
      8 O8         43.7210   17.9330    1.9110 O.co2     1 MOL        -0.9000 
      9 C9         45.8070   12.0390    1.2120 C.ar      1 MOL         0.0530 
     10 C10        47.0570   11.4940    1.5270 C.ar      1 MOL        -0.1500 
     11 C11        47.3740   10.1700    1.2180 C.ar      1 MOL         0.1000 
     12 C12        46.4250    9.3660    0.5890 C.ar      1 MOL        -0.1500 
     13 C13        45.1860    9.8980    0.2430 C.ar      1 MOL        -0.1500 
     14 C14        44.8900   11.2260    0.5400 C.ar      1 MOL        -0.1500 
     15 Br19       46.8350   13.5830    4.0280 Br        1 MOL        -0.0570 
     16 O20        45.4590   16.3200    3.6600 O.3       1 MOL        -0.3420 
     17 C21        46.6730   17.1330    3.6950 C.3       1 MOL         0.1740 
     18 C22        47.0760   17.6330    5.0800 C.2       1 MOL         0.9060 
     19 O25        48.2580   17.7610    5.3300 O.co2     1 MOL        -0.9000 
     20 O26        46.2340   17.8570    5.9410 O.co2     1 MOL        -0.9000 
     21 N29        48.6450    9.7300    1.4800 N.pl3     1 MOL        -0.8691 
     22 C30        48.9950    8.3360    1.7960 C.3       1 MOL         0.3691 
     23 C31        50.5220    8.1730    1.6620 C.3       1 MOL         0.0000 
     24 C32        51.0190    6.8410    2.2420 C.3       1 MOL         0.3557 
     25 N33        50.6120    6.7480    3.6580 N.am      1 MOL        -0.8494 
     26 C34        49.1320    6.6920    3.7690 C.3       1 MOL         0.3557 
     27 C35        48.5180    7.9960    3.2240 C.3       1 MOL         0.0000 
     28 S46        51.4660    5.7130    4.5860 S.o2      1 MOL         1.3328 
     29 O47        50.9980    5.9500    5.9150 O.2       1 MOL        -0.6500 
     30 O48        52.8100    6.2000    4.4200 O.2       1 MOL        -0.6500 
     31 C49        51.1510    4.0820    4.0300 C.3       1 MOL         0.2487 
     32 C50        51.5860    3.0740    5.0720 C.ar      1 MOL        -0.1435 
     33 C53        52.9350    2.7430    5.2130 C.ar      1 MOL        -0.1500 
     34 C54        53.3310    1.8410    6.1960 C.ar      1 MOL        -0.1500 
     35 C55        52.3860    1.2760    7.0420 C.ar      1 MOL        -0.1500 
     36 C56        51.0380    1.5950    6.9030 C.ar      1 MOL        -0.1500 
     37 C57        50.6380    2.4980    5.9210 C.ar      1 MOL        -0.1500 
     38 H1         47.8180   12.1300    1.9540 H         1 MOL         0.1500 
     39 H2         46.6550    8.3410    0.3140 H         1 MOL         0.1500 
     40 H3         44.4580    9.2820   -0.2770 H         1 MOL         0.1500 
     41 H4         43.9210   11.6250    0.2590 H         1 MOL         0.1500 
     42 H5         46.5410   18.0040    3.0490 H         1 MOL         0.0000 
     43 H6         47.5150   16.5400    3.3280 H         1 MOL         0.0000 
     44 H7         49.3230   10.4560    1.6730 H         1 MOL         0.4000 
     45 H8         48.5210    7.6460    1.0900 H         1 MOL         0.0000 
     46 H9         51.0220    8.9720    2.2020 H         1 MOL         0.0000 
     47 H10        50.8060    8.2490    0.6110 H         1 MOL         0.0000 
     48 H11        52.1090    6.8170    2.1540 H         1 MOL         0.0000 
     49 H12        50.6090    6.0010    1.6700 H         1 MOL         0.0000 
     50 H13        48.8190    6.5730    4.8120 H         1 MOL         0.0000 
     51 H14        48.7400    5.8400    3.2010 H         1 MOL         0.0000 
     52 H15        47.4320    7.9080    3.2210 H         1 MOL         0.0000 
     53 H16        48.7820    8.8110    3.8970 H         1 MOL         0.0000 
     54 H17        51.6870    3.9460    3.0930 H         1 MOL         0.0000 
     55 H18        50.0780    4.0060    3.8520 H         1 MOL         0.0000 
     56 H19        53.6910    3.1760    4.5620 H         1 MOL         0.1500 
     57 H20        54.3790    1.5620    6.3060 H         1 MOL         0.1500 
     58 H21        52.7080    0.5670    7.8020 H         1 MOL         0.1500 
     59 H22        50.3030    1.1180    7.5480 H         1 MOL         0.1500 
     60 H23        49.5820    2.7380    5.8190 H         1 MOL         0.1500 
@<TRIPOS>BOND
     1    1    2 1    
     2    1    5 1    
     3    2    3 2    
     4    2    6 1    
     5    3    4 1    
     6    3   16 1    
     7    4    5 2    
     8    4   15 1    
     9    5    9 1    
    10    6    7 ar   
    11    6    8 ar   
    12    9   10 ar   
    13    9   14 ar   
    14   10   11 ar   
    15   11   12 ar   
    16   11   21 1    
    17   12   13 ar   
    18   13   14 ar   
    19   16   17 1    
    20   17   18 1    
    21   18   19 ar   
    22   18   20 ar   
    23   21   22 1    
    24   22   23 1    
    25   22   27 1    
    26   23   24 1    
    27   24   25 1    
    28   25   26 1    
    29   25   28 am   
    30   26   27 1    
    31   28   29 2    
    32   28   30 2    
    33   28   31 1    
    34   31   32 1    
    35   32   33 ar   
    36   32   37 ar   
    37   33   34 ar   
    38   34   35 ar   
    39   35   36 ar   
    40   36   37 ar   
    41   10   38 1    
    42   12   39 1    
    43   13   40 1    
    44   14   41 1    
    45   17   42 1    
    46   17   43 1    
    47   21   44 1    
    48   22   45 1    
    49   23   46 1    
    50   23   47 1    
    51   24   48 1    
    52   24   49 1    
    53   26   50 1    
    54   26   51 1    
    55   27   52 1    
    56   27   53 1    
    57   31   54 1    
    58   31   55 1    
    59   33   56 1    
    60   34   57 1    
    61   35   58 1    
    62   36   59 1    
    63   37   60 1    
@<TRIPOS>SUBSTRUCTURE
     1 MOL         1 PERM              0 ****  ****    0 ROOT 
@<TRIPOS>NORMAL
@<TRIPOS>ALT_TYPE
MMFF94_ALT_TYPE_SET 
MMFF94 17 CR 22 CR 23 CR 24 CR 26 CR 27 CR 31 CR 2 C5A 5 C5A 3 C5B 4 C5B \
9 CB 10 CB 11 CB 12 CB 13 CB 14 CB 32 CB 33 CB 34 CB \
35 CB 36 CB 37 CB 6 CO2M 18 CO2M 38 HC 39 HC 40 HC 41 HC \
42 HC 43 HC 45 HC 46 HC 47 HC 48 HC 49 HC 50 HC 51 HC \
52 HC 53 HC 54 HC 55 HC 56 HC 57 HC 58 HC 59 HC 60 HC \
44 HNCC 7 O2CM 8 O2CM 19 O2CM 20 O2CM 29 O2S 30 O2S 16 OC=C \
25 NSO2 21 NC=C 1 STHI 28 SO2N 15 BR
