#	Name:			3ebp_ligand
#	Creating user name:	suminyi
#	Creation time:		Sun Sep 30 06:48:43 2018

#	Modifying user name:	suminyi
#	Modification time:	Sun Sep 30 06:48:43 2018

@<TRIPOS>MOLECULE
3ebp_ligand
   49    52     1     1     0
SMALL
MMFF94_CHARGES


@<TRIPOS>ATOM
      1 C1         43.6640   39.9960   27.9080 C.3       1 CPB         0.5030 
      2 N1         42.6920   39.6050   28.9430 N.4       1 CPB        -0.9590 
      3 C16        41.3320   39.6430   28.3560 C.3       1 CPB         0.5030 
      4 C15        40.2750   39.2770   29.4140 C.3       1 CPB         0.0000 
      5 C14        40.6090   37.9170   30.0470 C.3       1 CPB         0.1435 
      6 C13        42.0680   37.8680   30.5630 C.3       1 CPB         0.2800 
      7 C12        43.0340   38.2510   29.4370 C.3       1 CPB         0.5030 
      8 C8         39.5420   37.4920   31.1020 C.ar      1 CPB        -0.1435 
      9 C9         38.7280   36.3900   30.7900 C.ar      1 CPB         0.0825 
     10 O1         38.9310   35.7490   29.5910 O.3       1 CPB        -0.1592 
     11 C2         38.1810   34.6440   29.2800 C.2       1 CPB         0.0483 
     12 C3         37.1960   34.1910   30.1560 C.2       1 CPB        -0.1356 
     13 C4         36.9570   34.8520   31.3570 C.2       1 CPB         0.4694 
     14 O4         36.0800   34.4380   32.1180 O.2       1 CPB        -0.5700 
     15 C10        37.7360   35.9640   31.6850 C.ar      1 CPB         0.0862 
     16 C5         37.5740   36.6230   32.9090 C.ar      1 CPB         0.0825 
     17 O5         36.6350   36.2280   33.8150 O.3       1 CPB        -0.5325 
     18 C6         38.3740   37.7130   33.2180 C.ar      1 CPB        -0.1500 
     19 C7         39.3480   38.1540   32.3240 C.ar      1 CPB         0.0825 
     20 O7         40.0930   39.2270   32.6980 O.3       1 CPB        -0.5325 
     21 C21        38.4210   33.9460   28.0870 C.ar      1 CPB         0.0284 
     22 C22        38.8300   34.5770   26.8980 C.ar      1 CPB         0.1770 
     23 CL1        39.0450   36.2890   26.7970 Cl        1 CPB        -0.1770 
     24 C23        39.0690   33.8290   25.7450 C.ar      1 CPB        -0.1500 
     25 C24        38.9080   32.4450   25.7710 C.ar      1 CPB        -0.1500 
     26 C25        38.5120   31.8100   26.9480 C.ar      1 CPB        -0.1500 
     27 C26        38.2740   32.5510   28.0980 C.ar      1 CPB        -0.1500 
     28 O3         42.2540   38.7900   31.6350 O.3       1 CPB        -0.6800 
     29 H1         43.4179   41.0011   27.5349 H         1 CPB         0.0000 
     30 H2         43.6241   39.2765   27.0770 H         1 CPB         0.0000 
     31 H3         44.6760   40.0026   28.3391 H         1 CPB         0.0000 
     32 H4         42.7369   40.2557   29.7115 H         1 CPB         0.4500 
     33 H5         41.2764   38.9238   27.5256 H         1 CPB         0.0000 
     34 H6         41.1295   40.6560   27.9780 H         1 CPB         0.0000 
     35 H7         39.2857   39.2225   28.9361 H         1 CPB         0.0000 
     36 H8         40.2618   40.0492   30.1973 H         1 CPB         0.0000 
     37 H9         40.5484   37.1734   29.2387 H         1 CPB         0.0000 
     38 H10        42.2924   36.8493   30.9120 H         1 CPB         0.0000 
     39 H11        44.0652   38.2484   29.8199 H         1 CPB         0.0000 
     40 H12        42.9464   37.5260   28.6144 H         1 CPB         0.0000 
     41 H13        36.6079   33.3115   29.8981 H         1 CPB         0.1500 
     42 H14        36.8046   35.3299   34.0741 H         1 CPB         0.4500 
     43 H15        38.2405   38.2265   34.1633 H         1 CPB         0.1500 
     44 H16        40.7178   39.4318   32.0123 H         1 CPB         0.4500 
     45 H17        39.3791   34.3230   24.8313 H         1 CPB         0.1500 
     46 H18        39.0907   31.8616   24.8758 H         1 CPB         0.1500 
     47 H19        38.3895   30.7331   26.9651 H         1 CPB         0.1500 
     48 H20        37.9727   32.0483   29.0099 H         1 CPB         0.1500 
     49 H21        41.6633   38.5706   32.3460 H         1 CPB         0.4000 
@<TRIPOS>BOND
     1    1    2 1    
     2    2    3 1    
     3    2    7 1    
     4    3    4 1    
     5    4    5 1    
     6    5    6 1    
     7    5    8 1    
     8    6    7 1    
     9    6   28 1    
    10    8    9 ar   
    11    8   19 ar   
    12    9   10 1    
    13    9   15 ar   
    14   10   11 1    
    15   11   12 2    
    16   11   21 1    
    17   12   13 1    
    18   13   14 2    
    19   13   15 1    
    20   15   16 ar   
    21   16   17 1    
    22   16   18 ar   
    23   18   19 ar   
    24   19   20 1    
    25   21   22 ar   
    26   21   27 ar   
    27   22   23 1    
    28   22   24 ar   
    29   24   25 ar   
    30   25   26 ar   
    31   26   27 ar   
    32    1   29 1    
    33    1   30 1    
    34    1   31 1    
    35    2   32 1    
    36    3   33 1    
    37    3   34 1    
    38    4   35 1    
    39    4   36 1    
    40    5   37 1    
    41    6   38 1    
    42    7   39 1    
    43    7   40 1    
    44   12   41 1    
    45   17   42 1    
    46   18   43 1    
    47   20   44 1    
    48   24   45 1    
    49   25   46 1    
    50   26   47 1    
    51   27   48 1    
    52   28   49 1    
@<TRIPOS>SUBSTRUCTURE
     1 CPB         1 PERM              0 ****  ****    0 ROOT 
@<TRIPOS>NORMAL
@<TRIPOS>ALT_TYPE
MMFF94_ALT_TYPE_SET 
MMFF94 1 CR 3 CR 4 CR 5 CR 6 CR 7 CR 8 CB 9 CB 15 CB 16 CB 18 CB 19 CB \
21 CB 22 CB 24 CB 25 CB 26 CB 27 CB 13 C=OR 11 C=C 12 C=C \
29 HC 30 HC 31 HC 33 HC 34 HC 35 HC 36 HC 37 HC 38 HC \
39 HC 40 HC 41 HC 43 HC 45 HC 46 HC 47 HC 48 HC 32 HNR+ \
42 HOCC 44 HOCC 49 HOR 14 O=CR 10 OC=C 17 OC=C 20 OC=C \
28 OR 2 NR+ 23 CL 
