#	Name:			3ebp_ligand
#	Creating user name:	suminyi
#	Creation time:		Sun Sep 30 06:50:56 2018

#	Modifying user name:	suminyi
#	Modification time:	Sun Sep 30 06:50:56 2018

@<TRIPOS>MOLECULE
3ebp_ligand
   49    52     1     1     0
SMALL
MMFF94_CHARGES


@<TRIPOS>ATOM
      1 C1         43.5050   39.9730   27.6030 C.3       1 MOL         0.5030 
      2 N1         42.5370   39.6050   28.7110 N.4       1 MOL        -0.9590 
      3 C16        41.0920   39.6890   28.2500 C.3       1 MOL         0.5030 
      4 C15        40.1000   39.3940   29.3960 C.3       1 MOL         0.0000 
      5 C14        40.4340   38.0350   30.0640 C.3       1 MOL         0.1435 
      6 C13        41.9260   37.9180   30.4840 C.3       1 MOL         0.2800 
      7 C12        42.8070   38.2130   29.2540 C.3       1 MOL         0.5030 
      8 C8         39.4040   37.5950   31.1330 C.ar      1 MOL        -0.1435 
      9 C9         38.6050   36.4580   30.9050 C.ar      1 MOL         0.0825 
     10 O1         38.7900   35.7920   29.7060 O.3       1 MOL        -0.1592 
     11 C2         37.9930   34.7120   29.4120 C.2       1 MOL         0.0483 
     12 C3         37.0400   34.2250   30.2730 C.2       1 MOL        -0.1356 
     13 C4         36.8170   34.8590   31.5520 C.2       1 MOL         0.4694 
     14 O4         35.9710   34.4760   32.3400 O.2       1 MOL        -0.5700 
     15 C10        37.6680   36.0370   31.8510 C.ar      1 MOL         0.0862 
     16 C5         37.5500   36.7260   33.0540 C.ar      1 MOL         0.0825 
     17 O5         36.6810   36.3160   34.0100 O.3       1 MOL        -0.5325 
     18 C6         38.3130   37.8540   33.2790 C.ar      1 MOL        -0.1500 
     19 C7         39.2130   38.2970   32.3280 C.ar      1 MOL         0.0825 
     20 O7         39.8950   39.4310   32.6010 O.3       1 MOL        -0.5325 
     21 C21        38.2370   34.0170   28.1550 C.ar      1 MOL         0.0284 
     22 C22        38.7520   34.6690   27.0120 C.ar      1 MOL         0.1770 
     23 Cl1        39.0600   36.3740   26.9100 Cl        1 MOL        -0.1770 
     24 C23        39.0100   33.9560   25.8440 C.ar      1 MOL        -0.1500 
     25 C24        38.8050   32.5830   25.7930 C.ar      1 MOL        -0.1500 
     26 C25        38.3100   31.9220   26.9130 C.ar      1 MOL        -0.1500 
     27 C26        38.0210   32.6330   28.0740 C.ar      1 MOL        -0.1500 
     28 O3         42.2830   38.8870   31.4810 O.3       1 MOL        -0.6800 
     29 H1         43.2980   40.9970   27.2760 H         1 MOL         0.0000 
     30 H2         43.3710   39.2790   26.7680 H         1 MOL         0.0000 
     31 H3         44.5280   39.9060   27.9850 H         1 MOL         0.0000 
     32 H4         42.6500   40.2480   29.5270 H         1 MOL         0.4500 
     33 H5         40.9540   38.9570   27.4460 H         1 MOL         0.0000 
     34 H6         40.9110   40.6880   27.8420 H         1 MOL         0.0000 
     35 H7         39.0860   39.3550   28.9850 H         1 MOL         0.0000 
     36 H8         40.1270   40.2100   30.1200 H         1 MOL         0.0000 
     37 H9         40.3800   37.3380   29.2300 H         1 MOL         0.0000 
     38 H10        42.1260   36.9010   30.8430 H         1 MOL         0.0000 
     39 H11        43.8620   38.1520   29.5370 H         1 MOL         0.0000 
     40 H12        42.6100   37.4850   28.4600 H         1 MOL         0.0000 
     41 H13        36.3900   33.3880   30.0670 H         1 MOL         0.1500 
     42 H14        36.3140   35.4610   33.6430 H         1 MOL         0.4500 
     43 H15        38.2030   38.4020   34.2060 H         1 MOL         0.1500 
     44 H16        40.5690   39.5340   31.8980 H         1 MOL         0.4500 
     45 H17        39.3890   34.4830   24.9720 H         1 MOL         0.1500 
     46 H18        39.0550   32.0310   24.8890 H         1 MOL         0.1500 
     47 H19        38.1730   30.8420   26.9050 H         1 MOL         0.1500 
     48 H20        37.6940   32.0640   28.9410 H         1 MOL         0.1500 
     49 H21        42.1980   38.4650   32.3720 H         1 MOL         0.4000 
@<TRIPOS>BOND
     1    1    2 1    
     2    2    3 1    
     3    2    7 1    
     4    3    4 1    
     5    4    5 1    
     6    5    6 1    
     7    5    8 1    
     8    6    7 1    
     9    6   28 1    
    10    8    9 ar   
    11    8   19 ar   
    12    9   10 1    
    13    9   15 ar   
    14   10   11 1    
    15   11   12 2    
    16   11   21 1    
    17   12   13 1    
    18   13   14 2    
    19   13   15 1    
    20   15   16 ar   
    21   16   17 1    
    22   16   18 ar   
    23   18   19 ar   
    24   19   20 1    
    25   21   22 ar   
    26   21   27 ar   
    27   22   23 1    
    28   22   24 ar   
    29   24   25 ar   
    30   25   26 ar   
    31   26   27 ar   
    32    1   29 1    
    33    1   30 1    
    34    1   31 1    
    35    2   32 1    
    36    3   33 1    
    37    3   34 1    
    38    4   35 1    
    39    4   36 1    
    40    5   37 1    
    41    6   38 1    
    42    7   39 1    
    43    7   40 1    
    44   12   41 1    
    45   17   42 1    
    46   18   43 1    
    47   20   44 1    
    48   24   45 1    
    49   25   46 1    
    50   26   47 1    
    51   27   48 1    
    52   28   49 1    
@<TRIPOS>SUBSTRUCTURE
     1 MOL         1 PERM              0 ****  ****    0 ROOT 
@<TRIPOS>NORMAL
@<TRIPOS>ALT_TYPE
MMFF94_ALT_TYPE_SET 
MMFF94 1 CR 3 CR 4 CR 5 CR 6 CR 7 CR 8 CB 9 CB 15 CB 16 CB 18 CB 19 CB \
21 CB 22 CB 24 CB 25 CB 26 CB 27 CB 13 C=OR 11 C=C 12 C=C \
29 HC 30 HC 31 HC 33 HC 34 HC 35 HC 36 HC 37 HC 38 HC \
39 HC 40 HC 41 HC 43 HC 45 HC 46 HC 47 HC 48 HC 32 HNR+ \
42 HOCC 44 HOCC 49 HOR 14 O=CR 10 OC=C 17 OC=C 20 OC=C \
28 OR 2 NR+ 23 CL 
