#	Name:			4cr9_ligand
#	Creating user name:	suminyi
#	Creation time:		Sun Sep 30 06:51:13 2018

#	Modifying user name:	suminyi
#	Modification time:	Sun Sep 30 06:51:13 2018

@<TRIPOS>MOLECULE
4cr9_ligand
   24    25     1     1     0
SMALL
MMFF94_CHARGES


@<TRIPOS>ATOM
      1 C1         49.5600   23.1680   12.0660 C.3       1 MOL         0.1435 
      2 C2         49.8260   21.6950   11.8560 C.ar      1 MOL        -0.1435 
      3 C3         48.7470   20.8160   11.7710 C.ar      1 MOL        -0.1500 
      4 C4         49.0020   19.4660   11.6360 C.ar      1 MOL         0.4100 
      5 N5         50.2190   18.9500   11.5620 N.ar      1 MOL        -0.6200 
      6 C6         51.2700   19.7730   11.6690 C.ar      1 MOL         0.3100 
      7 C7         51.1240   21.1650   11.8030 C.ar      1 MOL         0.0000 
      8 C8         52.2670   21.9670   11.9370 C.ar      1 MOL        -0.1500 
      9 C9         53.5290   21.3840   11.9690 C.ar      1 MOL         0.1000 
     10 C10        53.6740   20.0100   11.8310 C.ar      1 MOL        -0.1500 
     11 C11        52.5430   19.2140   11.6770 C.ar      1 MOL        -0.1500 
     12 N12        54.6170   22.1360   12.2690 N.pl3     1 MOL        -0.9000 
     13 N13        48.0500   18.5360   11.5980 N.pl3     1 MOL        -0.9000 
     14 H1         48.5130   23.3410   12.3030 H         1 MOL         0.0000 
     15 H2         49.8130   23.7280   11.1630 H         1 MOL         0.0000 
     16 H3         50.1380   23.5470   12.9110 H         1 MOL         0.0000 
     17 H4         47.7230   21.1620   11.8450 H         1 MOL         0.1500 
     18 H5         52.1750   23.0390   12.0750 H         1 MOL         0.1500 
     19 H6         54.6520   19.5440   11.8970 H         1 MOL         0.1500 
     20 H7         52.6220   18.1330   11.6190 H         1 MOL         0.1500 
     21 H8         54.3820   23.0010   12.7370 H         1 MOL         0.4000 
     22 H9         55.3330   21.5990   12.7470 H         1 MOL         0.4000 
     23 H10        48.4250   17.6240   11.3600 H         1 MOL         0.4000 
     24 H11        47.1770   18.7300   11.1340 H         1 MOL         0.4000 
@<TRIPOS>BOND
     1    1    2 1    
     2    2    3 ar   
     3    2    7 ar   
     4    3    4 ar   
     5    4    5 ar   
     6    4   13 1    
     7    5    6 ar   
     8    6    7 ar   
     9    6   11 ar   
    10    7    8 ar   
    11    8    9 ar   
    12    9   10 ar   
    13    9   12 1    
    14   10   11 ar   
    15    1   14 1    
    16    1   15 1    
    17    1   16 1    
    18    3   17 1    
    19    8   18 1    
    20   10   19 1    
    21   11   20 1    
    22   12   21 1    
    23   12   22 1    
    24   13   23 1    
    25   13   24 1    
@<TRIPOS>SUBSTRUCTURE
     1 MOL         1 PERM              0 ****  ****    0 ROOT 
@<TRIPOS>NORMAL
@<TRIPOS>ALT_TYPE
MMFF94_ALT_TYPE_SET 
MMFF94 1 CR 2 CB 3 CB 4 CB 6 CB 7 CB 8 CB 9 CB 10 CB 11 CB 14 HC 15 HC \
16 HC 17 HC 18 HC 19 HC 20 HC 21 HNCC 22 HNCC 23 HNCC \
24 HNCC 5 NPYD 13 NC=N 12 NC=C 
