#	Name:			4cr9_ligand
#	Creating user name:	suminyi
#	Creation time:		Sun Sep 30 06:48:43 2018

#	Modifying user name:	suminyi
#	Modification time:	Sun Sep 30 06:48:43 2018

@<TRIPOS>MOLECULE
4cr9_ligand
   24    25     1     1     0
SMALL
MMFF94_CHARGES


@<TRIPOS>ATOM
      1 C1         49.6750   23.0710   11.9230 C.3       1 OTW         0.1435 
      2 C2         49.9300   21.6020   11.8740 C.ar      1 OTW        -0.1435 
      3 C3         48.8390   20.7680   11.8230 C.ar      1 OTW        -0.1500 
      4 C4         49.0270   19.4100   11.7740 C.ar      1 OTW         0.4100 
      5 N5         50.2450   18.8590   11.7770 N.ar      1 OTW        -0.6200 
      6 C6         51.3080   19.6710   11.8290 C.ar      1 OTW         0.3100 
      7 C7         51.2010   21.0540   11.8790 C.ar      1 OTW         0.0000 
      8 C8         52.3300   21.8510   11.9300 C.ar      1 OTW        -0.1500 
      9 C9         53.5870   21.2750   11.9340 C.ar      1 OTW         0.1000 
     10 C10        53.7030   19.9050   11.8850 C.ar      1 OTW        -0.1500 
     11 C11        52.5750   19.1240   11.8340 C.ar      1 OTW        -0.1500 
     12 N12        54.7520   22.0450   11.9860 N.pl3     1 OTW        -0.9000 
     13 N13        47.8810   18.6090   11.7190 N.pl3     1 OTW        -0.9000 
     14 H1         48.5907   23.2556   11.9083 H         1 OTW         0.0000 
     15 H2         50.1408   23.5533   11.0510 H         1 OTW         0.0000 
     16 H3         50.1053   23.4873   12.8458 H         1 OTW         0.0000 
     17 H4         47.8365   21.1804   11.8215 H         1 OTW         0.1500 
     18 H5         52.2293   22.9297   11.9669 H         1 OTW         0.1500 
     19 H6         54.6836   19.4429   11.8867 H         1 OTW         0.1500 
     20 H7         52.6828   18.0460   11.7966 H         1 OTW         0.1500 
     21 H8         54.6890   23.0724   12.0232 H         1 OTW         0.4000 
     22 H9         55.6736   21.5851   11.9871 H         1 OTW         0.4000 
     23 H10        47.9707   17.5836   11.6809 H         1 OTW         0.4000 
     24 H11        46.9477   19.0448   11.7166 H         1 OTW         0.4000 
@<TRIPOS>BOND
     1    1    2 1    
     2    2    3 ar   
     3    2    7 ar   
     4    3    4 ar   
     5    4    5 ar   
     6    4   13 1    
     7    5    6 ar   
     8    6    7 ar   
     9    6   11 ar   
    10    7    8 ar   
    11    8    9 ar   
    12    9   10 ar   
    13    9   12 1    
    14   10   11 ar   
    15    1   14 1    
    16    1   15 1    
    17    1   16 1    
    18    3   17 1    
    19    8   18 1    
    20   10   19 1    
    21   11   20 1    
    22   12   21 1    
    23   12   22 1    
    24   13   23 1    
    25   13   24 1    
@<TRIPOS>SUBSTRUCTURE
     1 OTW         1 PERM              0 ****  ****    0 ROOT 
@<TRIPOS>NORMAL
@<TRIPOS>ALT_TYPE
MMFF94_ALT_TYPE_SET 
MMFF94 1 CR 2 CB 3 CB 4 CB 6 CB 7 CB 8 CB 9 CB 10 CB 11 CB 14 HC 15 HC \
16 HC 17 HC 18 HC 19 HC 20 HC 21 HNCC 22 HNCC 23 HNCC \
24 HNCC 5 NPYD 13 NC=N 12 NC=C 
