#	Name:			1z95_ligand
#	Creating user name:	suminyi
#	Creation time:		Sun Sep 30 06:51:01 2018

#	Modifying user name:	suminyi
#	Modification time:	Sun Sep 30 06:51:01 2018

@<TRIPOS>MOLECULE
1z95_ligand
   43    44     1     1     0
SMALL
MMFF94_CHARGES


@<TRIPOS>ATOM
      1 C16        29.1290    1.3330    8.9140 C.ar      1 MOL        -0.1500 
      2 C17        28.6060    1.2710   10.2030 C.ar      1 MOL        -0.1500 
      3 C18        29.3360    0.6750   11.2240 C.ar      1 MOL         0.1900 
      4 F18        28.8110    0.5960   12.4580 F         1 MOL        -0.1900 
      5 C19        30.6070    0.1690   10.9720 C.ar      1 MOL        -0.1500 
      6 C20        31.1520    0.2670    9.6950 C.ar      1 MOL        -0.1500 
      7 C15        30.4070    0.8380    8.6610 C.ar      1 MOL        -0.0090 
      8 S14        31.1390    1.0800    7.0440 S.o2      1 MOL         1.2038 
      9 O14        30.6410    2.3610    6.5400 O.2       1 MOL        -0.6500 
     10 O15        32.5480    0.7350    7.1560 O.2       1 MOL        -0.6500 
     11 C13        30.4220   -0.1740    6.0310 C.3       1 MOL         0.1052 
     12 C11        29.6690    0.3520    4.7840 C.3       1 MOL         0.3410 
     13 O11        30.5910    1.1140    4.0150 O.3       1 MOL        -0.6800 
     14 C12        29.2600   -0.8480    3.9040 C.3       1 MOL         0.0000 
     15 C10        28.4300    1.2070    5.1030 C.2       1 MOL         0.5690 
     16 O10        27.6020    0.8750    5.9230 O.2       1 MOL        -0.5700 
     17 N9         28.3460    2.3630    4.4160 N.am      1 MOL        -0.5470 
     18 C1         27.4220    3.4260    4.5340 C.ar      1 MOL         0.1170 
     19 C2         26.0710    3.1990    4.7680 C.ar      1 MOL        -0.1500 
     20 C6         27.8970    4.7180    4.3700 C.ar      1 MOL        -0.1500 
     21 C5         27.0220    5.7910    4.4530 C.ar      1 MOL        -0.1500 
     22 C4         25.6640    5.5760    4.6820 C.ar      1 MOL         0.0730 
     23 C8         24.8500    6.7570    4.7980 C.1       1 MOL         0.4841 
     24 N8         24.2450    7.7190    4.9140 N.1       1 MOL        -0.5571 
     25 C3         25.1660    4.2660    4.8330 C.ar      1 MOL        -0.1435 
     26 C7         23.6990    3.9510    5.1440 C.3       1 MOL         1.1635 
     27 F7B        23.4710    4.0810    6.4530 F         1 MOL        -0.3400 
     28 F7C        22.8140    4.7290    4.4990 F         1 MOL        -0.3400 
     29 F7A        23.3580    2.6890    4.8230 F         1 MOL        -0.3400 
     30 H1         28.5410    1.7770    8.1100 H         1 MOL         0.1500 
     31 H2         27.6220    1.6800   10.4050 H         1 MOL         0.1500 
     32 H3         31.1930   -0.2670   11.7770 H         1 MOL         0.1500 
     33 H4         32.1800   -0.0540    9.5220 H         1 MOL         0.1500 
     34 H5         29.7540   -0.7480    6.6630 H         1 MOL         0.0000 
     35 H6         31.2580   -0.7940    5.7070 H         1 MOL         0.0000 
     36 H7         30.9260    1.8710    4.5570 H         1 MOL         0.4000 
     37 H8         28.7960   -0.5040    2.9770 H         1 MOL         0.0000 
     38 H9         28.5470   -1.4920    4.4240 H         1 MOL         0.0000 
     39 H10        30.1350   -1.4470    3.6380 H         1 MOL         0.0000 
     40 H11        29.1440    2.5590    3.8310 H         1 MOL         0.3700 
     41 H12        25.7290    2.1760    4.9170 H         1 MOL         0.1500 
     42 H13        28.9560    4.8980    4.1990 H         1 MOL         0.1500 
     43 H14        27.4030    6.8060    4.3510 H         1 MOL         0.1500 
@<TRIPOS>BOND
     1    1    2 ar   
     2    1    7 ar   
     3    2    3 ar   
     4    3    4 1    
     5    3    5 ar   
     6    5    6 ar   
     7    6    7 ar   
     8    7    8 1    
     9    8    9 2    
    10    8   10 2    
    11    8   11 1    
    12   11   12 1    
    13   12   13 1    
    14   12   14 1    
    15   12   15 1    
    16   15   16 2    
    17   15   17 am   
    18   17   18 1    
    19   18   19 ar   
    20   18   20 ar   
    21   19   25 ar   
    22   20   21 ar   
    23   21   22 ar   
    24   22   23 1    
    25   22   25 ar   
    26   23   24 3    
    27   25   26 1    
    28   26   27 1    
    29   26   28 1    
    30   26   29 1    
    31    1   30 1    
    32    2   31 1    
    33    5   32 1    
    34    6   33 1    
    35   11   34 1    
    36   11   35 1    
    37   13   36 1    
    38   14   37 1    
    39   14   38 1    
    40   14   39 1    
    41   17   40 1    
    42   19   41 1    
    43   20   42 1    
    44   21   43 1    
@<TRIPOS>SUBSTRUCTURE
     1 MOL         1 PERM              0 ****  ****    0 ROOT 
@<TRIPOS>NORMAL
@<TRIPOS>ALT_TYPE
MMFF94_ALT_TYPE_SET 
MMFF94 11 CR 12 CR 14 CR 26 CR 1 CB 2 CB 3 CB 5 CB 6 CB 7 CB 18 CB 19 CB \
20 CB 21 CB 22 CB 25 CB 15 C=ON 23 CSP 30 HC 31 HC 32 HC \
33 HC 34 HC 35 HC 37 HC 38 HC 39 HC 41 HC 42 HC 43 HC \
40 HNCC 36 HOR 16 O=CN 9 O2S 10 O2S 13 OR 24 NSP 17 NC=O \
8 SO2 4 F 27 F 28 F 29 F 
