#	Name:			3ui7_ligand
#	Creating user name:	suminyi
#	Creation time:		Sun Sep 30 06:49:07 2018

#	Modifying user name:	suminyi
#	Modification time:	Sun Sep 30 06:49:07 2018

@<TRIPOS>MOLECULE
3ui7_ligand
   47    50     1     1     0
SMALL
MMFF94_CHARGES


@<TRIPOS>ATOM
      1 C5          4.7120   11.6700   41.9390 C.ar      1 C1L        -0.1500 
      2 C14         4.2680   13.1580   40.0810 C.ar      1 C1L        -0.1500 
      3 C2          4.3290   12.6840   42.8390 C.ar      1 C1L         0.0000 
      4 C3          3.9330   13.4970   45.0860 C.ar      1 C1L         0.0000 
      5 C9          3.8750   14.2240   40.9500 C.ar      1 C1L        -0.1435 
      6 C1          4.3360   12.4260   44.2450 C.ar      1 C1L        -0.1435 
      7 C4          3.8950   13.9890   42.3430 C.ar      1 C1L         0.3100 
      8 C10         4.7180   11.8920   40.5600 C.ar      1 C1L         0.0825 
      9 C7          3.7670   13.7350   46.4610 C.2       1 C1L        -0.3316 
     10 C6          3.5790   14.7200   44.4830 C.ar      1 C1L         0.6580 
     11 C20         6.9260    9.6660   44.6200 C.3       1 C1L         0.5030 
     12 C24         7.2050   12.0610   45.1010 C.3       1 C1L         0.5030 
     13 C21         8.3270    9.6300   44.0100 C.3       1 C1L         0.2800 
     14 C23         8.5980   11.9670   44.4980 C.3       1 C1L         0.2800 
     15 C17         3.4510   15.5810   40.3610 C.3       1 C1L         0.1435 
     16 C13         4.0890   12.8090   47.5840 C.3       1 C1L         0.1800 
     17 C16         6.2930   10.1990   39.9390 C.3       1 C1L         0.2800 
     18 C18         4.8860   11.1080   44.7910 C.3       1 C1L         0.6465 
     19 N8          3.5030   14.9990   43.1550 N.ar      1 C1L        -0.6200 
     20 N11         3.2560   15.5600   45.4880 N.2       1 C1L        -0.7660 
     21 N12         3.3640   15.0060   46.6920 N.pl3     1 C1L         0.4076 
     22 N19         6.3640   11.0150   44.5020 N.4       1 C1L        -0.9590 
     23 O22         9.1580   10.6270   44.5950 O.3       1 C1L        -0.5600 
     24 O15         5.1110   10.9470   39.6320 O.3       1 C1L        -0.3625 
     25 H1          5.0072   10.7004   42.3235 H         1 C1L         0.1500 
     26 H2          4.2218   13.3195   39.0101 H         1 C1L         0.1500 
     27 H3          6.9836    9.3868   45.6824 H         1 C1L         0.0000 
     28 H4          6.2784    8.9535   44.0882 H         1 C1L         0.0000 
     29 H5          6.7745   13.0504   44.8872 H         1 C1L         0.0000 
     30 H6          7.2615   11.9131   46.1895 H         1 C1L         0.0000 
     31 H7          8.2539    9.8110   42.9275 H         1 C1L         0.0000 
     32 H8          8.7723    8.6399   44.1870 H         1 C1L         0.0000 
     33 H9          9.2606   12.6656   45.0300 H         1 C1L         0.0000 
     34 H10         8.5428   12.2502   43.4365 H         1 C1L         0.0000 
     35 H11         3.5103   15.5389   39.2634 H         1 C1L         0.0000 
     36 H12         4.1219   16.3686   40.7345 H         1 C1L         0.0000 
     37 H13         2.4177   15.8055   40.6640 H         1 C1L         0.0000 
     38 H14         3.8433   13.2934   48.5406 H         1 C1L         0.0000 
     39 H15         5.1612   12.5644   47.5617 H         1 C1L         0.0000 
     40 H16         3.5000   11.8860   47.4785 H         1 C1L         0.0000 
     41 H17         6.4966    9.4855   39.1269 H         1 C1L         0.0000 
     42 H18         6.1454    9.6502   40.8808 H         1 C1L         0.0000 
     43 H19         7.1450   10.8867   40.0450 H         1 C1L         0.0000 
     44 H20         4.3657   10.2671   44.3092 H         1 C1L         0.0000 
     45 H21         4.7227   11.0660   45.8780 H         1 C1L         0.0000 
     46 H22         3.1805   15.4488   47.6037 H         1 C1L         0.1620 
     47 H23         6.4181   11.2095   43.5144 H         1 C1L         0.4500 
@<TRIPOS>BOND
     1    3    1 ar   
     2    1    8 ar   
     3    5    2 ar   
     4    8    2 ar   
     5    6    3 ar   
     6    3    7 ar   
     7    6    4 ar   
     8    4    9 2    
     9    4   10 ar   
    10    7    5 ar   
    11    5   15 1    
    12   18    6 1    
    13    7   19 ar   
    14    8   24 1    
    15    9   16 1    
    16    9   21 1    
    17   10   19 ar   
    18   10   20 2    
    19   11   13 1    
    20   22   11 1    
    21   12   14 1    
    22   22   12 1    
    23   13   23 1    
    24   14   23 1    
    25   24   17 1    
    26   18   22 1    
    27   20   21 1    
    28    1   25 1    
    29    2   26 1    
    30   11   27 1    
    31   11   28 1    
    32   12   29 1    
    33   12   30 1    
    34   13   31 1    
    35   13   32 1    
    36   14   33 1    
    37   14   34 1    
    38   15   35 1    
    39   15   36 1    
    40   15   37 1    
    41   16   38 1    
    42   16   39 1    
    43   16   40 1    
    44   17   41 1    
    45   17   42 1    
    46   17   43 1    
    47   18   44 1    
    48   18   45 1    
    49   21   46 1    
    50   22   47 1    
@<TRIPOS>SUBSTRUCTURE
     1 C1L         1 PERM              0 ****  ****    0 ROOT 
@<TRIPOS>NORMAL
@<TRIPOS>ALT_TYPE
MMFF94_ALT_TYPE_SET 
MMFF94 11 CR 12 CR 13 CR 14 CR 15 CR 16 CR 17 CR 18 CR 9 C5A 1 CB 2 CB \
3 CB 4 CB 5 CB 6 CB 7 CB 8 CB 10 CB 25 HC 26 HC 27 HC \
28 HC 29 HC 30 HC 31 HC 32 HC 33 HC 34 HC 35 HC 36 HC \
37 HC 38 HC 39 HC 40 HC 41 HC 42 HC 43 HC 44 HC 45 HC \
46 HNCC 47 HNR+ 24 OC=C 23 OR 19 NPYD 21 NPYL 20 N5A \
22 NR+ 
