#	Name:			3ui7_ligand
#	Creating user name:	suminyi
#	Creation time:		Sun Sep 30 06:51:01 2018

#	Modifying user name:	suminyi
#	Modification time:	Sun Sep 30 06:51:01 2018

@<TRIPOS>MOLECULE
3ui7_ligand
   47    50     1     1     0
SMALL
MMFF94_CHARGES


@<TRIPOS>ATOM
      1 C5          4.7340   11.5830   42.0330 C.ar      1 MOL        -0.1500 
      2 C14         4.2420   13.0380   40.1800 C.ar      1 MOL        -0.1500 
      3 C2          4.3990   12.6070   42.9360 C.ar      1 MOL         0.0000 
      4 C3          4.0900   13.4840   45.1330 C.ar      1 MOL         0.0000 
      5 C9          3.8890   14.0620   41.0560 C.ar      1 MOL        -0.1435 
      6 C1          4.4730   12.4080   44.3290 C.ar      1 MOL        -0.1435 
      7 C4          3.9730   13.8640   42.4430 C.ar      1 MOL         0.3100 
      8 C10         4.6790   11.8130   40.6610 C.ar      1 MOL         0.0825 
      9 C7          4.0230   13.6240   46.5480 C.2       1 MOL        -0.3316 
     10 C6          3.6740   14.6750   44.5910 C.ar      1 MOL         0.6580 
     11 C20         6.9090    9.4750   44.9190 C.3       1 MOL         0.5030 
     12 C24         7.3340   11.8860   45.2100 C.3       1 MOL         0.5030 
     13 C21         8.3730    9.2600   44.4760 C.3       1 MOL         0.2800 
     14 C23         8.7920   11.7120   44.7400 C.3       1 MOL         0.2800 
     15 C17         3.4250   15.3950   40.4770 C.3       1 MOL         0.1435 
     16 C13         4.3630   12.7030   47.6870 C.3       1 MOL         0.1800 
     17 C16         6.2820   10.1100   39.9110 C.3       1 MOL         0.2800 
     18 C18         4.9670   11.1010   44.9250 C.3       1 MOL         0.6465 
     19 N8          3.6360   14.8850   43.2650 N.ar      1 MOL        -0.6200 
     20 N11         3.3360   15.5590   45.5350 N.2       1 MOL        -0.7660 
     21 N12         3.5340   14.9010   46.7140 N.pl3     1 MOL         0.4076 
     22 N19         6.4090   10.8670   44.5600 N.4       1 MOL        -0.9590 
     23 O22         9.1890   10.3410   45.0060 O.3       1 MOL        -0.5600 
     24 O15         5.0420   10.8390   39.7590 O.3       1 MOL        -0.3625 
     25 H1          4.9970   10.5880   42.3740 H         1 MOL         0.1500 
     26 H2          4.1840   13.1940   39.1110 H         1 MOL         0.1500 
     27 H3          6.8450    9.3560   46.0060 H         1 MOL         0.0000 
     28 H4          6.2610    8.7280   44.4510 H         1 MOL         0.0000 
     29 H5          6.9740   12.8940   44.9790 H         1 MOL         0.0000 
     30 H6          7.2840   11.7360   46.2930 H         1 MOL         0.0000 
     31 H7          8.4530    9.2530   43.3850 H         1 MOL         0.0000 
     32 H8          8.7490    8.3060   44.8640 H         1 MOL         0.0000 
     33 H9          9.4580   12.3870   45.2890 H         1 MOL         0.0000 
     34 H10         8.8880   11.9230   43.6720 H         1 MOL         0.0000 
     35 H11         3.3550   15.3650   39.3880 H         1 MOL         0.0000 
     36 H12         4.1300   16.1830   40.7500 H         1 MOL         0.0000 
     37 H13         2.4400   15.6630   40.8670 H         1 MOL         0.0000 
     38 H14         4.2840   13.2210   48.6420 H         1 MOL         0.0000 
     39 H15         5.3800   12.3140   47.6100 H         1 MOL         0.0000 
     40 H16         3.6660   11.8700   47.7350 H         1 MOL         0.0000 
     41 H17         6.4040    9.4380   39.0580 H         1 MOL         0.0000 
     42 H18         6.2600    9.5220   40.8320 H         1 MOL         0.0000 
     43 H19         7.1170   10.8170   39.9390 H         1 MOL         0.0000 
     44 H20         4.3750   10.2750   44.5240 H         1 MOL         0.0000 
     45 H21         4.8790   11.0890   46.0100 H         1 MOL         0.0000 
     46 H22         3.3450   15.3710   47.5900 H         1 MOL         0.1620 
     47 H23         6.4690   10.9980   43.5310 H         1 MOL         0.4500 
@<TRIPOS>BOND
     1    3    1 ar   
     2    1    8 ar   
     3    5    2 ar   
     4    8    2 ar   
     5    6    3 ar   
     6    3    7 ar   
     7    6    4 ar   
     8    4    9 2    
     9    4   10 ar   
    10    7    5 ar   
    11    5   15 1    
    12   18    6 1    
    13    7   19 ar   
    14    8   24 1    
    15    9   16 1    
    16    9   21 1    
    17   10   19 ar   
    18   10   20 2    
    19   11   13 1    
    20   22   11 1    
    21   12   14 1    
    22   22   12 1    
    23   13   23 1    
    24   14   23 1    
    25   24   17 1    
    26   18   22 1    
    27   20   21 1    
    28    1   25 1    
    29    2   26 1    
    30   11   27 1    
    31   11   28 1    
    32   12   29 1    
    33   12   30 1    
    34   13   31 1    
    35   13   32 1    
    36   14   33 1    
    37   14   34 1    
    38   15   35 1    
    39   15   36 1    
    40   15   37 1    
    41   16   38 1    
    42   16   39 1    
    43   16   40 1    
    44   17   41 1    
    45   17   42 1    
    46   17   43 1    
    47   18   44 1    
    48   18   45 1    
    49   21   46 1    
    50   22   47 1    
@<TRIPOS>SUBSTRUCTURE
     1 MOL         1 PERM              0 ****  ****    0 ROOT 
@<TRIPOS>NORMAL
@<TRIPOS>ALT_TYPE
MMFF94_ALT_TYPE_SET 
MMFF94 11 CR 12 CR 13 CR 14 CR 15 CR 16 CR 17 CR 18 CR 9 C5A 1 CB 2 CB \
3 CB 4 CB 5 CB 6 CB 7 CB 8 CB 10 CB 25 HC 26 HC 27 HC \
28 HC 29 HC 30 HC 31 HC 32 HC 33 HC 34 HC 35 HC 36 HC \
37 HC 38 HC 39 HC 40 HC 41 HC 42 HC 43 HC 44 HC 45 HC \
46 HNCC 47 HNR+ 24 OC=C 23 OR 19 NPYD 21 NPYL 20 N5A \
22 NR+ 
