#	Name:			4kzq_ligand
#	Creating user name:	suminyi
#	Creation time:		Sun Sep 30 06:51:12 2018

#	Modifying user name:	suminyi
#	Modification time:	Sun Sep 30 06:51:12 2018

@<TRIPOS>MOLECULE
4kzq_ligand
   28    30     1     1     0
SMALL
MMFF94_CHARGES


@<TRIPOS>ATOM
      1 C1         -4.6390   34.7510  -15.3640 C.ar      1 MOL        -0.1500 
      2 C2         -5.3080   35.5200  -16.3110 C.ar      1 MOL        -0.1500 
      3 C3         -6.1780   36.5310  -15.9050 C.ar      1 MOL        -0.1500 
      4 C4         -6.3510   36.7990  -14.5470 C.ar      1 MOL         0.0862 
      5 C5         -5.6520   36.0560  -13.5950 C.ar      1 MOL         0.0825 
      6 C6         -4.8170   35.0200  -14.0080 C.ar      1 MOL        -0.1500 
      7 C7         -7.2660   37.8850  -14.1130 C.2       1 MOL         0.4694 
      8 C8         -7.2390   38.1630  -12.6970 C.2       1 MOL        -0.1356 
      9 C9         -6.5040   37.3920  -11.8300 C.2       1 MOL         0.0483 
     10 O1         -5.7480   36.3050  -12.2370 O.3       1 MOL        -0.1592 
     11 C10        -6.5270   37.6800  -10.4020 C.ar      1 MOL         0.0284 
     12 C11        -7.3090   38.7020   -9.8390 C.ar      1 MOL        -0.1500 
     13 C12        -7.3060   38.9350   -8.4660 C.ar      1 MOL        -0.1500 
     14 C13        -6.5100   38.1620   -7.6350 C.ar      1 MOL         0.0825 
     15 C14        -5.7300   37.1490   -8.1710 C.ar      1 MOL        -0.1500 
     16 C15        -5.7470   36.9000   -9.5390 C.ar      1 MOL        -0.1500 
     17 O2         -8.0070   38.4740  -14.8760 O.2       1 MOL        -0.5700 
     18 O4         -6.5000   38.4010   -6.3020 O.3       1 MOL        -0.5325 
     19 H1         -3.9560   33.9660  -15.6880 H         1 MOL         0.1500 
     20 H2         -5.1220   35.3420  -17.3680 H         1 MOL         0.1500 
     21 H3         -6.6970   37.1470  -16.6380 H         1 MOL         0.1500 
     22 H4         -4.2830   34.4330  -13.2680 H         1 MOL         0.1500 
     23 H5         -7.8370   39.0150  -12.4320 H         1 MOL         0.1500 
     24 H6         -7.9440   39.3310  -10.4470 H         1 MOL         0.1500 
     25 H7         -7.9340   39.7180   -8.0540 H         1 MOL         0.1500 
     26 H8         -5.0930   36.5590   -7.5250 H         1 MOL         0.1500 
     27 H9         -5.1320   36.0920   -9.9260 H         1 MOL         0.1500 
     28 H10        -6.8740   39.2850   -6.1600 H         1 MOL         0.4500 
@<TRIPOS>BOND
     1    1    2 ar   
     2    1    6 ar   
     3    2    3 ar   
     4    3    4 ar   
     5    4    5 ar   
     6    4    7 1    
     7    5    6 ar   
     8    5   10 1    
     9    7    8 1    
    10    7   17 2    
    11    8    9 2    
    12    9   10 1    
    13    9   11 1    
    14   11   12 ar   
    15   11   16 ar   
    16   12   13 ar   
    17   13   14 ar   
    18   14   15 ar   
    19   14   18 1    
    20   15   16 ar   
    21    1   19 1    
    22    2   20 1    
    23    3   21 1    
    24    6   22 1    
    25    8   23 1    
    26   12   24 1    
    27   13   25 1    
    28   15   26 1    
    29   16   27 1    
    30   18   28 1    
@<TRIPOS>SUBSTRUCTURE
     1 MOL         1 PERM              0 ****  ****    0 ROOT 
@<TRIPOS>NORMAL
@<TRIPOS>ALT_TYPE
MMFF94_ALT_TYPE_SET 
MMFF94 1 CB 2 CB 3 CB 4 CB 5 CB 6 CB 11 CB 12 CB 13 CB 14 CB 15 CB 16 CB \
7 C=OR 8 C=C 9 C=C 19 HC 20 HC 21 HC 22 HC 23 HC 24 HC \
25 HC 26 HC 27 HC 28 HOCC 17 O=CR 10 OC=C 18 OC=C 
