#	Name:			4kzq_ligand
#	Creating user name:	suminyi
#	Creation time:		Sun Sep 30 06:48:44 2018

#	Modifying user name:	suminyi
#	Modification time:	Sun Sep 30 06:48:44 2018

@<TRIPOS>MOLECULE
4kzq_ligand
   28    30     1     1     0
SMALL
MMFF94_CHARGES


@<TRIPOS>ATOM
      1 C1         -4.7040   34.8160  -15.4720 C.ar      1 DFL        -0.1500 
      2 C2         -5.4300   35.5340  -16.4320 C.ar      1 DFL        -0.1500 
      3 C3         -6.3170   36.5300  -16.0180 C.ar      1 DFL        -0.1500 
      4 C4         -6.5080   36.7960  -14.6600 C.ar      1 DFL         0.0862 
      5 C5         -5.7450   36.0990  -13.7170 C.ar      1 DFL         0.0825 
      6 C6         -4.8660   35.0910  -14.1000 C.ar      1 DFL        -0.1500 
      7 C7         -7.3940   37.8070  -14.2210 C.2       1 DFL         0.4694 
      8 C8         -7.4040   38.1620  -12.8750 C.2       1 DFL        -0.1356 
      9 C9         -6.6210   37.4900  -11.9480 C.2       1 DFL         0.0483 
     10 O1         -5.8740   36.4190  -12.3780 O.3       1 DFL        -0.1592 
     11 C10        -6.5890   37.7580  -10.5240 C.ar      1 DFL         0.0284 
     12 C11        -7.3920   38.7290   -9.9060 C.ar      1 DFL        -0.1500 
     13 C12        -7.3550   38.9940   -8.5400 C.ar      1 DFL        -0.1500 
     14 C13        -6.4910   38.2290   -7.7530 C.ar      1 DFL         0.0825 
     15 C14        -5.6950   37.2350   -8.3190 C.ar      1 DFL        -0.1500 
     16 C15        -5.7360   37.0060   -9.6930 C.ar      1 DFL        -0.1500 
     17 O2         -8.1940   38.3750  -14.9900 O.2       1 DFL        -0.5700 
     18 O4         -6.4250   38.4280   -6.4290 O.3       1 DFL        -0.5325 
     19 H1         -4.0125   34.0432  -15.7877 H         1 DFL         0.1500 
     20 H2         -5.3041   35.3181  -17.4868 H         1 DFL         0.1500 
     21 H3         -6.8633   37.1030  -16.7585 H         1 DFL         0.1500 
     22 H4         -4.3154   34.5271  -13.3557 H         1 DFL         0.1500 
     23 H5         -8.0385   38.9827  -12.5436 H         1 DFL         0.1500 
     24 H6         -8.0751   39.3012  -10.5232 H         1 DFL         0.1500 
     25 H7         -7.9754   39.7675   -8.1020 H         1 DFL         0.1500 
     26 H8         -5.0434   36.6394   -7.6899 H         1 DFL         0.1500 
     27 H9         -5.1039   36.2400  -10.1274 H         1 DFL         0.1500 
     28 H10        -7.0166   39.1303   -6.1856 H         1 DFL         0.4500 
@<TRIPOS>BOND
     1    1    2 ar   
     2    1    6 ar   
     3    2    3 ar   
     4    3    4 ar   
     5    4    5 ar   
     6    4    7 1    
     7    5    6 ar   
     8    5   10 1    
     9    7    8 1    
    10    7   17 2    
    11    8    9 2    
    12    9   10 1    
    13    9   11 1    
    14   11   12 ar   
    15   11   16 ar   
    16   12   13 ar   
    17   13   14 ar   
    18   14   15 ar   
    19   14   18 1    
    20   15   16 ar   
    21    1   19 1    
    22    2   20 1    
    23    3   21 1    
    24    6   22 1    
    25    8   23 1    
    26   12   24 1    
    27   13   25 1    
    28   15   26 1    
    29   16   27 1    
    30   18   28 1    
@<TRIPOS>SUBSTRUCTURE
     1 DFL         1 PERM              0 ****  ****    0 ROOT 
@<TRIPOS>NORMAL
@<TRIPOS>ALT_TYPE
MMFF94_ALT_TYPE_SET 
MMFF94 1 CB 2 CB 3 CB 4 CB 5 CB 6 CB 11 CB 12 CB 13 CB 14 CB 15 CB 16 CB \
7 C=OR 8 C=C 9 C=C 19 HC 20 HC 21 HC 22 HC 23 HC 24 HC \
25 HC 26 HC 27 HC 28 HOCC 17 O=CR 10 OC=C 18 OC=C 
