#	Name:			3o9i_ligand
#	Creating user name:	suminyi
#	Creation time:		Sun Sep 30 06:48:40 2018

#	Modifying user name:	suminyi
#	Modification time:	Sun Sep 30 06:48:40 2018

@<TRIPOS>MOLECULE
3o9i_ligand
   81    85     1     1     0
SMALL
MMFF94_CHARGES


@<TRIPOS>ATOM
      1 C1         15.3520   36.5310   18.5170 C.2       1 A61         0.2281 
      2 N1         14.9080   35.2650   18.5990 N.2       1 A61        -0.5653 
      3 S1         16.5800   36.8090   17.3170 S.3       1 A61        -0.0800 
      4 C2         15.5210   34.4370   17.7000 C.ar      1 A61         0.2272 
      5 C3         16.4610   35.1460   16.9520 C.ar      1 A61         0.0400 
      6 C4         17.1930   34.4420   15.9750 C.ar      1 A61        -0.1500 
      7 C5         17.0150   33.0530   15.7370 C.ar      1 A61        -0.0090 
      8 C6         16.0430   32.3860   16.4880 C.ar      1 A61        -0.1500 
      9 C7         15.3180   33.0860   17.4470 C.ar      1 A61        -0.1500 
     10 S8         17.9260   32.1540   14.7010 S.o2      1 A61         1.4470 
     11 O9         18.4850   33.0220   13.7250 O.2       1 A61        -0.6500 
     12 O10        17.1830   31.0640   14.1980 O.2       1 A61        -0.6500 
     13 N11        19.1700   31.5540   15.5690 N.am      1 A61        -0.8494 
     14 C12        19.9270   32.5650   16.3450 C.3       1 A61         0.3557 
     15 C13        21.4440   32.3750   16.2810 C.3       1 A61         0.0000 
     16 C14        22.0330   32.4620   14.8690 C.3       1 A61         0.0000 
     17 C15        22.0940   33.3740   17.2590 C.3       1 A61         0.0000 
     18 C16        18.9220   30.2750   16.2580 C.3       1 A61         0.3557 
     19 C17        19.8650   29.2000   15.7010 C.3       1 A61         0.2800 
     20 C18        21.9790   34.8330   16.8600 C.3       1 A61         0.0000 
     21 O18        19.8310   28.0670   16.5910 O.3       1 A61        -0.6800 
     22 C19        19.5080   28.7470   14.2770 C.3       1 A61         0.3001 
     23 C20        23.4810   32.0150   14.8060 C.3       1 A61         0.0000 
     24 N20        20.5950   27.9280   13.7770 N.am      1 A61        -0.7301 
     25 C21        21.4730   28.2990   12.8690 C.2       1 A61         0.7800 
     26 O22        21.6050   29.3650   12.3130 O.2       1 A61        -0.5700 
     27 O23        22.3820   27.2420   12.5840 O.3       1 A61        -0.4300 
     28 C24        23.2490   27.4100   11.4690 C.3       1 A61         0.2800 
     29 C25        24.5720   26.8190   11.9320 C.3       1 A61         0.2800 
     30 O26        24.3840   25.4160   11.8230 O.3       1 A61        -0.5600 
     31 C27        23.4930   25.1260   10.7590 C.3       1 A61         0.5600 
     32 O28        22.5000   24.2140   11.1870 O.3       1 A61        -0.5600 
     33 C29        21.2100   24.8230   11.2280 C.3       1 A61         0.2800 
     34 C30        21.3300   26.0860   10.3880 C.3       1 A61         0.0000 
     35 C31        22.8110   26.4320   10.4000 C.3       1 A61         0.0000 
     36 C32        18.2080   27.9410   14.1700 C.3       1 A61         0.1435 
     37 C33        18.0390   26.1960   12.3640 C.ar      1 A61        -0.1500 
     38 C34        17.8360   25.8160   11.0380 C.ar      1 A61        -0.1500 
     39 C35        17.4940   26.7750   10.0950 C.ar      1 A61        -0.1500 
     40 C36        17.3780   28.1100   10.4600 C.ar      1 A61        -0.1500 
     41 C37        17.5970   28.4980   11.7730 C.ar      1 A61        -0.1500 
     42 C38        17.9510   27.5410   12.7280 C.ar      1 A61        -0.1435 
     43 H1         14.9702   37.3258   19.1561 H         1 A61         0.1500 
     44 H2         17.9213   34.9823   15.3811 H         1 A61         0.1500 
     45 H3         15.8555   31.3310   16.3244 H         1 A61         0.1500 
     46 H4         14.5650   32.5565   18.0195 H         1 A61         0.1500 
     47 H5         19.6127   32.5028   17.3973 H         1 A61         0.0000 
     48 H6         19.6842   33.5617   15.9480 H         1 A61         0.0000 
     49 H7         21.6622   31.3608   16.6468 H         1 A61         0.0000 
     50 H8         21.9725   33.5057   14.5269 H         1 A61         0.0000 
     51 H9         21.4385   31.8220   14.2005 H         1 A61         0.0000 
     52 H10        23.1627   33.1260   17.3392 H         1 A61         0.0000 
     53 H11        21.6142   33.2506   18.2411 H         1 A61         0.0000 
     54 H12        17.8787   29.9672   16.0946 H         1 A61         0.0000 
     55 H13        19.1034   30.3984   17.3359 H         1 A61         0.0000 
     56 H14        20.8848   29.6119   15.6814 H         1 A61         0.0000 
     57 H15        22.4709   35.4603   17.6180 H         1 A61         0.0000 
     58 H16        20.9171   35.1107   16.7873 H         1 A61         0.0000 
     59 H17        22.4656   34.9861   15.8854 H         1 A61         0.0000 
     60 H18        20.4100   27.3896   16.2618 H         1 A61         0.4000 
     61 H19        19.4068   29.6436   13.6478 H         1 A61         0.0000 
     62 H20        23.8462   32.0997   13.7719 H         1 A61         0.0000 
     63 H21        23.5565   30.9687   15.1369 H         1 A61         0.0000 
     64 H22        24.0905   32.6524   15.4634 H         1 A61         0.0000 
     65 H23        20.6851   27.0057   14.1527 H         1 A61         0.3700 
     66 H24        23.3130   28.4506   11.1182 H         1 A61         0.0000 
     67 H25        24.7838   27.1044   12.9730 H         1 A61         0.0000 
     68 H26        25.3964   27.1535   11.2851 H         1 A61         0.0000 
     69 H27        24.0401   24.7167    9.8970 H         1 A61         0.0000 
     70 H28        20.9363   25.0745   12.2633 H         1 A61         0.0000 
     71 H29        20.4527   24.1485   10.8020 H         1 A61         0.0000 
     72 H30        20.7395   26.9016   10.8308 H         1 A61         0.0000 
     73 H31        20.9854   25.9001    9.3600 H         1 A61         0.0000 
     74 H32        23.1174   26.8015    9.4103 H         1 A61         0.0000 
     75 H33        17.3698   28.5553   14.5307 H         1 A61         0.0000 
     76 H34        18.2912   27.0350   14.7882 H         1 A61         0.0000 
     77 H35        18.2655   25.4462   13.1133 H         1 A61         0.1500 
     78 H36        17.9446   24.7779   10.7454 H         1 A61         0.1500 
     79 H37        17.3163   26.4803    9.0671 H         1 A61         0.1500 
     80 H38        17.1150   28.8521    9.7149 H         1 A61         0.1500 
     81 H39        17.4941   29.5389   12.0575 H         1 A61         0.1500 
@<TRIPOS>BOND
     1    2    1 2    
     2    3    1 1    
     3    4    2 1    
     4    5    3 1    
     5    5    4 ar   
     6    9    4 ar   
     7    6    5 ar   
     8    7    6 ar   
     9    7    8 ar   
    10   10    7 1    
    11    8    9 ar   
    12   10   11 2    
    13   10   12 2    
    14   13   10 am   
    15   13   14 1    
    16   18   13 1    
    17   14   15 1    
    18   15   16 1    
    19   15   17 1    
    20   16   23 1    
    21   17   20 1    
    22   19   18 1    
    23   19   21 1    
    24   22   19 1    
    25   22   24 1    
    26   36   22 1    
    27   24   25 am   
    28   25   26 2    
    29   25   27 1    
    30   27   28 1    
    31   28   29 1    
    32   28   35 1    
    33   29   30 1    
    34   31   30 1    
    35   31   32 1    
    36   35   31 1    
    37   33   32 1    
    38   34   33 1    
    39   35   34 1    
    40   42   36 1    
    41   37   38 ar   
    42   37   42 ar   
    43   38   39 ar   
    44   39   40 ar   
    45   40   41 ar   
    46   41   42 ar   
    47    1   43 1    
    48    6   44 1    
    49    8   45 1    
    50    9   46 1    
    51   14   47 1    
    52   14   48 1    
    53   15   49 1    
    54   16   50 1    
    55   16   51 1    
    56   17   52 1    
    57   17   53 1    
    58   18   54 1    
    59   18   55 1    
    60   19   56 1    
    61   20   57 1    
    62   20   58 1    
    63   20   59 1    
    64   21   60 1    
    65   22   61 1    
    66   23   62 1    
    67   23   63 1    
    68   23   64 1    
    69   24   65 1    
    70   28   66 1    
    71   29   67 1    
    72   29   68 1    
    73   31   69 1    
    74   33   70 1    
    75   33   71 1    
    76   34   72 1    
    77   34   73 1    
    78   35   74 1    
    79   36   75 1    
    80   36   76 1    
    81   37   77 1    
    82   38   78 1    
    83   39   79 1    
    84   40   80 1    
    85   41   81 1    
@<TRIPOS>SUBSTRUCTURE
     1 A61         1 PERM              0 ****  ****    0 ROOT 
@<TRIPOS>NORMAL
@<TRIPOS>ALT_TYPE
MMFF94_ALT_TYPE_SET 
MMFF94 14 CR 15 CR 16 CR 17 CR 18 CR 19 CR 20 CR 22 CR 23 CR 28 CR 29 CR \
31 CR 33 CR 34 CR 35 CR 36 CR 1 C5A 5 C5A 4 C5B 6 CB \
7 CB 8 CB 9 CB 37 CB 38 CB 39 CB 40 CB 41 CB 42 CB 25 COO \
43 HC 44 HC 45 HC 46 HC 47 HC 48 HC 49 HC 50 HC 51 HC \
52 HC 53 HC 54 HC 55 HC 56 HC 57 HC 58 HC 59 HC 61 HC \
62 HC 63 HC 64 HC 66 HC 67 HC 68 HC 69 HC 70 HC 71 HC \
72 HC 73 HC 74 HC 75 HC 76 HC 77 HC 78 HC 79 HC 80 HC \
81 HC 65 HNCO 60 HOR 26 O=CN 11 O2S 12 O2S 27 OC=O 21 OR \
30 OR 32 OR 2 N5B 13 NSO2 24 NC=O 3 STHI 10 SO2N 
