#	Name:			3o9i_ligand
#	Creating user name:	suminyi
#	Creation time:		Sun Sep 30 06:50:57 2018

#	Modifying user name:	suminyi
#	Modification time:	Sun Sep 30 06:50:57 2018

@<TRIPOS>MOLECULE
3o9i_ligand
   81    85     1     1     0
SMALL
MMFF94_CHARGES


@<TRIPOS>ATOM
      1 C1         15.6340   36.4780   18.6030 C.2       1 MOL         0.2281 
      2 N1         15.0630   35.2540   18.6550 N.2       1 MOL        -0.5653 
      3 S1         16.8850   36.7490   17.3890 S.3       1 MOL        -0.0800 
      4 C2         15.6040   34.4960   17.7070 C.ar      1 MOL         0.2272 
      5 C3         16.5820   35.0870   16.9590 C.ar      1 MOL         0.0400 
      6 C4         17.2750   34.3650   15.9950 C.ar      1 MOL        -0.1500 
      7 C5         16.9690   33.0140   15.8150 C.ar      1 MOL        -0.0090 
      8 C6         15.9360   32.4210   16.5460 C.ar      1 MOL        -0.1500 
      9 C7         15.2390   33.1770   17.4870 C.ar      1 MOL        -0.1500 
     10 S8         17.9440   32.0410   14.6870 S.o2      1 MOL         1.4470 
     11 O9         18.6180   32.8840   13.6970 O.2       1 MOL        -0.6500 
     12 O10        17.1650   30.9200   14.1820 O.2       1 MOL        -0.6500 
     13 N11        19.2120   31.4550   15.6290 N.am      1 MOL        -0.8494 
     14 C12        19.8920   32.4510   16.4800 C.3       1 MOL         0.3557 
     15 C13        21.4250   32.2940   16.4320 C.3       1 MOL         0.0000 
     16 C14        21.9270   32.5010   14.9720 C.3       1 MOL         0.0000 
     17 C15        22.1150   33.2330   17.4600 C.3       1 MOL         0.0000 
     18 C16        19.1070   30.0850   16.2340 C.3       1 MOL         0.3557 
     19 C17        20.0840   29.0940   15.5470 C.3       1 MOL         0.2800 
     20 C18        21.9370   34.7430   17.1890 C.3       1 MOL         0.0000 
     21 O18        20.1840   27.8430   16.2460 O.3       1 MOL        -0.6800 
     22 C19        19.6900   28.7680   14.0830 C.3       1 MOL         0.3001 
     23 C20        23.4070   32.1400   14.8270 C.3       1 MOL         0.0000 
     24 N20        20.8120   28.0220   13.5140 N.am      1 MOL        -0.7301 
     25 C21        21.6330   28.3950   12.5370 C.2       1 MOL         0.7800 
     26 O22        21.5010   29.3590   11.8000 O.2       1 MOL        -0.5700 
     27 O23        22.5990   27.4710   12.4960 O.3       1 MOL        -0.4300 
     28 C24        23.4540   27.3380   11.3430 C.3       1 MOL         0.2800 
     29 C25        24.7470   26.6860   11.8470 C.3       1 MOL         0.2800 
     30 O26        24.4160   25.2810   11.8870 O.3       1 MOL        -0.5600 
     31 C27        23.5460   24.9650   10.7820 C.3       1 MOL         0.5600 
     32 O28        22.4460   24.1340   11.2220 O.3       1 MOL        -0.5600 
     33 C29        21.2520   24.9180   11.4120 C.3       1 MOL         0.2800 
     34 C30        21.3960   26.0200   10.3610 C.3       1 MOL         0.0000 
     35 C31        22.9130   26.2940   10.3370 C.3       1 MOL         0.0000 
     36 C32        18.3720   27.9400   13.9960 C.3       1 MOL         0.1435 
     37 C33        18.1700   26.1920   12.1880 C.ar      1 MOL        -0.1500 
     38 C34        17.9100   25.8100   10.8740 C.ar      1 MOL        -0.1500 
     39 C35        17.5140   26.7650    9.9390 C.ar      1 MOL        -0.1500 
     40 C36        17.3430   28.0920   10.3310 C.ar      1 MOL        -0.1500 
     41 C37        17.5910   28.4690   11.6490 C.ar      1 MOL        -0.1500 
     42 C38        18.0280   27.5240   12.5740 C.ar      1 MOL        -0.1435 
     43 H1         15.3570   37.2760   19.2770 H         1 MOL         0.1500 
     44 H2         18.0750   34.8290   15.4290 H         1 MOL         0.1500 
     45 H3         15.6970   31.3680   16.4040 H         1 MOL         0.1500 
     46 H4         14.4360   32.7380   18.0640 H         1 MOL         0.1500 
     47 H5         19.5240   32.3810   17.5060 H         1 MOL         0.0000 
     48 H6         19.6770   33.4540   16.1130 H         1 MOL         0.0000 
     49 H7         21.6620   31.2730   16.7440 H         1 MOL         0.0000 
     50 H8         21.7480   33.5230   14.6350 H         1 MOL         0.0000 
     51 H9         21.3710   31.8470   14.2960 H         1 MOL         0.0000 
     52 H10        23.1800   32.9970   17.5060 H         1 MOL         0.0000 
     53 H11        21.7200   33.0130   18.4530 H         1 MOL         0.0000 
     54 H12        18.0850   29.7040   16.1730 H         1 MOL         0.0000 
     55 H13        19.3640   30.1180   17.2980 H         1 MOL         0.0000 
     56 H14        21.0790   29.5460   15.5400 H         1 MOL         0.0000 
     57 H15        22.4220   35.3190   17.9800 H         1 MOL         0.0000 
     58 H16        20.8830   35.0250   17.1690 H         1 MOL         0.0000 
     59 H17        22.3960   35.0310   16.2440 H         1 MOL         0.0000 
     60 H18        20.6780   27.9080   17.1280 H         1 MOL         0.4000 
     61 H19        19.5630   29.7030   13.5300 H         1 MOL         0.0000 
     62 H20        23.7010   32.1230   13.7800 H         1 MOL         0.0000 
     63 H21        23.5350   31.1380   15.2290 H         1 MOL         0.0000 
     64 H22        24.0570   32.8330   15.3640 H         1 MOL         0.0000 
     65 H23        21.0910   27.2200   14.0590 H         1 MOL         0.3700 
     66 H24        23.6370   28.3120   10.8820 H         1 MOL         0.0000 
     67 H25        25.0330   27.0460   12.8380 H         1 MOL         0.0000 
     68 H26        25.5610   26.8420   11.1360 H         1 MOL         0.0000 
     69 H27        24.1230   24.4520    9.9930 H         1 MOL         0.0000 
     70 H28        21.2500   25.3410   12.4190 H         1 MOL         0.0000 
     71 H29        20.3620   24.3050   11.2610 H         1 MOL         0.0000 
     72 H30        20.7900   26.8990   10.5840 H         1 MOL         0.0000 
     73 H31        21.0760   25.6320    9.3920 H         1 MOL         0.0000 
     74 H32        23.2470   26.5470    9.3300 H         1 MOL         0.0000 
     75 H33        17.5350   28.4950   14.4160 H         1 MOL         0.0000 
     76 H34        18.4550   27.0470   14.6190 H         1 MOL         0.0000 
     77 H35        18.5020   25.4590   12.9210 H         1 MOL         0.1500 
     78 H36        18.0340   24.7730   10.5830 H         1 MOL         0.1500 
     79 H37        17.3340   26.4770    8.9070 H         1 MOL         0.1500 
     80 H38        17.0220   28.8360    9.6080 H         1 MOL         0.1500 
     81 H39        17.4500   29.4990   11.9660 H         1 MOL         0.1500 
@<TRIPOS>BOND
     1    2    1 2    
     2    3    1 1    
     3    4    2 1    
     4    5    3 1    
     5    5    4 ar   
     6    9    4 ar   
     7    6    5 ar   
     8    7    6 ar   
     9    7    8 ar   
    10   10    7 1    
    11    8    9 ar   
    12   10   11 2    
    13   10   12 2    
    14   13   10 am   
    15   13   14 1    
    16   18   13 1    
    17   14   15 1    
    18   15   16 1    
    19   15   17 1    
    20   16   23 1    
    21   17   20 1    
    22   19   18 1    
    23   19   21 1    
    24   22   19 1    
    25   22   24 1    
    26   36   22 1    
    27   24   25 am   
    28   25   26 2    
    29   25   27 1    
    30   27   28 1    
    31   28   29 1    
    32   28   35 1    
    33   29   30 1    
    34   31   30 1    
    35   31   32 1    
    36   35   31 1    
    37   33   32 1    
    38   34   33 1    
    39   35   34 1    
    40   42   36 1    
    41   37   38 ar   
    42   37   42 ar   
    43   38   39 ar   
    44   39   40 ar   
    45   40   41 ar   
    46   41   42 ar   
    47    1   43 1    
    48    6   44 1    
    49    8   45 1    
    50    9   46 1    
    51   14   47 1    
    52   14   48 1    
    53   15   49 1    
    54   16   50 1    
    55   16   51 1    
    56   17   52 1    
    57   17   53 1    
    58   18   54 1    
    59   18   55 1    
    60   19   56 1    
    61   20   57 1    
    62   20   58 1    
    63   20   59 1    
    64   21   60 1    
    65   22   61 1    
    66   23   62 1    
    67   23   63 1    
    68   23   64 1    
    69   24   65 1    
    70   28   66 1    
    71   29   67 1    
    72   29   68 1    
    73   31   69 1    
    74   33   70 1    
    75   33   71 1    
    76   34   72 1    
    77   34   73 1    
    78   35   74 1    
    79   36   75 1    
    80   36   76 1    
    81   37   77 1    
    82   38   78 1    
    83   39   79 1    
    84   40   80 1    
    85   41   81 1    
@<TRIPOS>SUBSTRUCTURE
     1 MOL         1 PERM              0 ****  ****    0 ROOT 
@<TRIPOS>NORMAL
@<TRIPOS>ALT_TYPE
MMFF94_ALT_TYPE_SET 
MMFF94 14 CR 15 CR 16 CR 17 CR 18 CR 19 CR 20 CR 22 CR 23 CR 28 CR 29 CR \
31 CR 33 CR 34 CR 35 CR 36 CR 1 C5A 5 C5A 4 C5B 6 CB \
7 CB 8 CB 9 CB 37 CB 38 CB 39 CB 40 CB 41 CB 42 CB 25 COO \
43 HC 44 HC 45 HC 46 HC 47 HC 48 HC 49 HC 50 HC 51 HC \
52 HC 53 HC 54 HC 55 HC 56 HC 57 HC 58 HC 59 HC 61 HC \
62 HC 63 HC 64 HC 66 HC 67 HC 68 HC 69 HC 70 HC 71 HC \
72 HC 73 HC 74 HC 75 HC 76 HC 77 HC 78 HC 79 HC 80 HC \
81 HC 65 HNCO 60 HOR 26 O=CN 11 O2S 12 O2S 27 OC=O 21 OR \
30 OR 32 OR 2 N5B 13 NSO2 24 NC=O 3 STHI 10 SO2N 
