#	Name:			2r9w_ligand
#	Creating user name:	suminyi
#	Creation time:		Sun Sep 30 06:51:10 2018

#	Modifying user name:	suminyi
#	Modification time:	Sun Sep 30 06:51:10 2018

@<TRIPOS>MOLECULE
2r9w_ligand
   42    45     1     1     0
SMALL
MMFF94_CHARGES


@<TRIPOS>ATOM
      1 CD2        22.7980    9.3740   15.8930 C.ar      1 MOL         0.0000 
      2 CAN        22.3090    9.3570   17.2050 C.ar      1 MOL        -0.1500 
      3 CAH        21.2060   10.1300   17.5600 C.ar      1 MOL        -0.1500 
      4 CAG        20.5680   10.9210   16.6100 C.ar      1 MOL        -0.1500 
      5 CAL        21.0300   10.9310   15.2970 C.ar      1 MOL        -0.1500 
      6 CAX        22.1340   10.1600   14.9380 C.ar      1 MOL         0.0000 
      7 CAM        22.5530   10.1570   13.6100 C.ar      1 MOL        -0.1500 
      8 CAI        23.6620    9.4140   13.2320 C.ar      1 MOL        -0.1500 
      9 CD1        24.3580    8.6790   14.1800 C.ar      1 MOL        -0.1500 
     10 CG         23.9170    8.6180   15.5040 C.ar      1 MOL        -0.1435 
     11 CB         24.6370    7.6530   16.4410 C.3       1 MOL         0.1435 
     12 CA         23.8900    6.2980   16.6100 C.3       1 MOL         0.1941 
     13 C          24.6900    5.3400   17.5090 C.2       1 MOL         0.9060 
     14 OXT        25.3060    5.8050   18.4490 O.co2     1 MOL        -0.9000 
     15 O          24.8730    4.1880   17.1740 O.co2     1 MOL        -0.9000 
     16 N          23.4020    5.7760   15.2870 N.am      1 MOL        -0.4201 
     17 CAW        22.0850    5.6540   14.9920 C.2       1 MOL         0.5438 
     18 OAD        21.1700    5.8510   15.7690 O.2       1 MOL        -0.5700 
     19 CBA        22.0040    5.2400   13.5650 C.ar      1 MOL         0.0862 
     20 CAP        20.9150    4.9750   12.7360 C.ar      1 MOL        -0.1500 
     21 CAT        21.1640    4.5460   11.4190 C.ar      1 MOL        -0.1790 
     22 CAR        20.0270    4.1190   10.5290 C.2       1 MOL         0.9790 
     23 OAE        18.9310    3.9840   11.0390 O.co2     1 MOL        -0.9000 
     24 OAA        20.2660    3.7920    9.3890 O.co2     1 MOL        -0.9000 
     25 CAK        22.4900    4.4790   10.9500 C.ar      1 MOL        -0.1500 
     26 CAO        23.5660    4.7740   11.7920 C.ar      1 MOL        -0.1500 
     27 CAZ        23.2900    5.1280   13.1080 C.ar      1 MOL         0.0862 
     28 CAV        24.1960    5.4800   14.2290 C.2       1 MOL         0.5438 
     29 OAC        25.4090    5.5920   14.1620 O.2       1 MOL        -0.5700 
     30 H1         22.7800    8.7450   17.9660 H         1 MOL         0.1500 
     31 H2         20.8370   10.1140   18.5790 H         1 MOL         0.1500 
     32 H3         19.7050   11.5210   16.8860 H         1 MOL         0.1500 
     33 H4         20.5220   11.5350   14.5490 H         1 MOL         0.1500 
     34 H5         21.9950   10.7100   12.8620 H         1 MOL         0.1500 
     35 H6         23.9660    9.3740   12.1930 H         1 MOL         0.1500 
     36 H7         25.2180    8.1000   13.8630 H         1 MOL         0.1500 
     37 H8         24.8090    8.1210   17.4130 H         1 MOL         0.0000 
     38 H9         25.6320    7.4450   16.0450 H         1 MOL         0.0000 
     39 H10        23.0060    6.5020   17.2180 H         1 MOL         0.0000 
     40 H11        19.8940    5.0630   13.1060 H         1 MOL         0.1500 
     41 H12        22.6780    4.1660    9.9210 H         1 MOL         0.1500 
     42 H13        24.5860    4.7060   11.4290 H         1 MOL         0.1500 
@<TRIPOS>BOND
     1    1    2 ar   
     2    1    6 ar   
     3    1   10 ar   
     4    2    3 ar   
     5    3    4 ar   
     6    4    5 ar   
     7    5    6 ar   
     8    6    7 ar   
     9    7    8 ar   
    10    8    9 ar   
    11    9   10 ar   
    12   10   11 1    
    13   11   12 1    
    14   12   13 1    
    15   12   16 1    
    16   13   14 ar   
    17   13   15 ar   
    18   16   17 am   
    19   16   28 am   
    20   17   18 2    
    21   17   19 1    
    22   19   20 ar   
    23   19   27 ar   
    24   20   21 ar   
    25   21   22 1    
    26   21   25 ar   
    27   22   23 ar   
    28   22   24 ar   
    29   25   26 ar   
    30   26   27 ar   
    31   27   28 1    
    32   28   29 2    
    33    2   30 1    
    34    3   31 1    
    35    4   32 1    
    36    5   33 1    
    37    7   34 1    
    38    8   35 1    
    39    9   36 1    
    40   11   37 1    
    41   11   38 1    
    42   12   39 1    
    43   20   40 1    
    44   25   41 1    
    45   26   42 1    
@<TRIPOS>SUBSTRUCTURE
     1 MOL         1 PERM              0 ****  ****    0 ROOT 
@<TRIPOS>NORMAL
@<TRIPOS>ALT_TYPE
MMFF94_ALT_TYPE_SET 
MMFF94 11 CR 12 CR 1 CB 2 CB 3 CB 4 CB 5 CB 6 CB 7 CB 8 CB 9 CB 10 CB \
19 CB 20 CB 21 CB 25 CB 26 CB 27 CB 13 CO2M 22 CO2M 17 C=ON \
28 C=ON 30 HC 31 HC 32 HC 33 HC 34 HC 35 HC 36 HC 37 HC \
38 HC 39 HC 40 HC 41 HC 42 HC 14 O2CM 15 O2CM 23 O2CM \
24 O2CM 18 O=CN 29 O=CN 16 NC=O 
