#	Name:			3fv1_ligand
#	Creating user name:	suminyi
#	Creation time:		Sun Sep 30 06:48:43 2018

#	Modifying user name:	suminyi
#	Modification time:	Sun Sep 30 06:48:43 2018

@<TRIPOS>MOLECULE
3fv1_ligand
   41    42     1     1     0
SMALL
MMFF94_CHARGES


@<TRIPOS>ATOM
      1 CAA        -9.0150   11.3910   19.7050 C.3       1 DYH         0.5030 
      2 NH         -9.9920   12.4710   19.8030 N.4       1 DYH        -0.9060 
      3 CAH       -10.0650   13.2430   21.0470 C.3       1 DYH         0.5030 
      4 CAG       -11.2010   14.2510   20.9770 C.3       1 DYH         0.2800 
      5 OAC       -11.1390   14.9900   19.7440 O.3       1 DYH        -0.6800 
      6 CAP       -11.1220   15.2350   22.1390 C.3       1 DYH         0.2800 
      7 OAQ        -9.9040   15.9730   22.0770 O.3       1 DYH        -0.5600 
      8 CAR        -8.7580   15.1170   22.2720 C.3       1 DYH         0.2800 
      9 CAS        -7.5280   15.8850   21.8370 C.3       1 DYH         0.0000 
     10 CAI        -8.7380   13.9400   21.3060 C.3       1 DYH         0.2800 
     11 OAJ        -8.2900   14.5050   20.0750 O.3       1 DYH        -0.5600 
     12 CAK        -7.4600   15.6540   20.3290 C.3       1 DYH         0.1740 
     13 CAE        -8.0510   16.8610   19.6090 C.2       1 DYH         0.9060 
     14 OAB        -9.2220   16.7820   19.1390 O.co2     1 DYH        -0.9000 
     15 OAF        -7.3530   17.8920   19.4920 O.co2     1 DYH        -0.9000 
     16 CB         -6.0250   15.3570   19.9050 C.3       1 DYH         0.0000 
     17 CA         -5.7980   15.2430   18.3960 C.3       1 DYH         0.3970 
     18 C          -4.3360   15.4470   18.1430 C.2       1 DYH         0.9060 
     19 OXT        -3.6970   14.5950   17.4910 O.co2     1 DYH        -0.9000 
     20 O          -3.8250   16.4790   18.6080 O.co2     1 DYH        -0.9000 
     21 N          -6.2230   13.9540   17.8620 N.4       1 DYH        -0.8530 
     22 H1         -9.0905   10.9170   18.7153 H         1 DYH         0.0000 
     23 H2         -9.2158   10.6429   20.4861 H         1 DYH         0.0000 
     24 H3         -8.0025   11.7992   19.8397 H         1 DYH         0.0000 
     25 H4        -10.9015   12.0630   19.6532 H         1 DYH         0.4500 
     26 H5         -9.7896   13.1225   19.0609 H         1 DYH         0.4500 
     27 H6        -10.2642   12.5511   21.8786 H         1 DYH         0.0000 
     28 H7        -12.1577   13.7105   21.0271 H         1 DYH         0.0000 
     29 H8        -10.3105   15.4522   19.6944 H         1 DYH         0.4000 
     30 H9        -11.1629   14.6805   23.0881 H         1 DYH         0.0000 
     31 H10       -11.9719   15.9312   22.0841 H         1 DYH         0.0000 
     32 H11        -8.7014   14.7838   23.3188 H         1 DYH         0.0000 
     33 H12        -6.6275   15.4939   22.3331 H         1 DYH         0.0000 
     34 H13        -7.6357   16.9560   22.0637 H         1 DYH         0.0000 
     35 H14        -8.0222   13.1899   21.6733 H         1 DYH         0.0000 
     36 H15        -5.7247   14.4047   20.3664 H         1 DYH         0.0000 
     37 H16        -5.3843   16.1665   20.2846 H         1 DYH         0.0000 
     38 H17        -6.3701   16.0341   17.8892 H         1 DYH         0.0000 
     39 H18        -6.0532   13.9293   16.8687 H         1 DYH         0.4500 
     40 H19        -7.2072   13.8254   18.0379 H         1 DYH         0.4500 
     41 H20        -5.7023   13.2164   18.3103 H         1 DYH         0.4500 
@<TRIPOS>BOND
     1    1    2 1    
     2    2    3 1    
     3    3    4 1    
     4    3   10 1    
     5    4    5 1    
     6    4    6 1    
     7    6    7 1    
     8    7    8 1    
     9    8    9 1    
    10    8   10 1    
    11    9   12 1    
    12   10   11 1    
    13   11   12 1    
    14   12   13 1    
    15   12   16 1    
    16   13   14 ar   
    17   13   15 ar   
    18   16   17 1    
    19   17   18 1    
    20   17   21 1    
    21   18   19 ar   
    22   18   20 ar   
    23    1   22 1    
    24    1   23 1    
    25    1   24 1    
    26    2   25 1    
    27    2   26 1    
    28    3   27 1    
    29    4   28 1    
    30    5   29 1    
    31    6   30 1    
    32    6   31 1    
    33    8   32 1    
    34    9   33 1    
    35    9   34 1    
    36   10   35 1    
    37   16   36 1    
    38   16   37 1    
    39   17   38 1    
    40   21   39 1    
    41   21   40 1    
    42   21   41 1    
@<TRIPOS>SUBSTRUCTURE
     1 DYH         1 PERM              0 ****  ****    0 ROOT 
@<TRIPOS>NORMAL
@<TRIPOS>ALT_TYPE
MMFF94_ALT_TYPE_SET 
MMFF94 1 CR 3 CR 4 CR 6 CR 8 CR 9 CR 10 CR 12 CR 16 CR 17 CR 13 CO2M \
18 CO2M 22 HC 23 HC 24 HC 27 HC 28 HC 30 HC 31 HC 32 HC \
33 HC 34 HC 35 HC 36 HC 37 HC 38 HC 25 HNR+ 26 HNR+ 39 HNR+ \
40 HNR+ 41 HNR+ 29 HOR 14 O2CM 15 O2CM 19 O2CM 20 O2CM \
5 OR 7 OR 11 OR 2 NR+ 21 NR+ 
