#	Name:			3fv1_ligand
#	Creating user name:	suminyi
#	Creation time:		Sun Sep 30 06:51:12 2018

#	Modifying user name:	suminyi
#	Modification time:	Sun Sep 30 06:51:12 2018

@<TRIPOS>MOLECULE
3fv1_ligand
   41    42     1     1     0
SMALL
MMFF94_CHARGES


@<TRIPOS>ATOM
      1 CAA        -9.2240   11.1370   19.8230 C.3       1 MOL         0.5030 
      2 NH         -9.9720   12.4420   19.6940 N.4       1 MOL        -0.9060 
      3 CAH       -10.0610   13.1850   21.0170 C.3       1 MOL         0.5030 
      4 CAG       -11.2150   14.2210   21.0070 C.3       1 MOL         0.2800 
      5 OAC       -11.2050   14.9590   19.7860 O.3       1 MOL        -0.6800 
      6 CAP       -11.1520   15.2510   22.1530 C.3       1 MOL         0.2800 
      7 OAQ        -9.8640   15.9000   22.1350 O.3       1 MOL        -0.5600 
      8 CAR        -8.7280   15.0200   22.3160 C.3       1 MOL         0.2800 
      9 CAS        -7.5040   15.8140   21.8810 C.3       1 MOL         0.0000 
     10 CAI        -8.7040   13.8540   21.3130 C.3       1 MOL         0.2800 
     11 OAJ        -8.1630   14.4100   20.0810 O.3       1 MOL        -0.5600 
     12 CAK        -7.4220   15.6300   20.3420 C.3       1 MOL         0.1740 
     13 CAE        -8.0320   16.8480   19.6200 C.2       1 MOL         0.9060 
     14 OAB        -9.2330   16.8570   19.4240 O.co2     1 MOL        -0.9000 
     15 OAF        -7.2930   17.7870   19.3640 O.co2     1 MOL        -0.9000 
     16 CB         -5.9640   15.3390   19.9390 C.3       1 MOL         0.0000 
     17 CA         -5.7080   15.1790   18.4220 C.3       1 MOL         0.3970 
     18 C          -4.2210   15.4200   18.1570 C.2       1 MOL         0.9060 
     19 OXT        -3.6100   14.6980   17.3940 O.co2     1 MOL        -0.9000 
     20 O          -3.7390   16.4690   18.5220 O.co2     1 MOL        -0.9000 
     21 N          -6.3370   13.9050   17.8390 N.4       1 MOL        -0.8530 
     22 H1         -9.1570   10.6810   18.8330 H         1 MOL         0.0000 
     23 H2         -9.7710   10.4860   20.5090 H         1 MOL         0.0000 
     24 H3         -8.2270   11.3500   20.2160 H         1 MOL         0.0000 
     25 H4        -10.8800   12.3460   19.2020 H         1 MOL         0.4500 
     26 H5         -9.4300   13.0780   19.0540 H         1 MOL         0.4500 
     27 H6        -10.2620   12.4520   21.8060 H         1 MOL         0.0000 
     28 H7        -12.1500   13.6640   21.0850 H         1 MOL         0.0000 
     29 H8        -10.3460   15.4720   19.7840 H         1 MOL         0.4000 
     30 H9        -11.3220   14.7780   23.1140 H         1 MOL         0.0000 
     31 H10       -11.9210   16.0150   22.0080 H         1 MOL         0.0000 
     32 H11        -8.6710   14.6670   23.3520 H         1 MOL         0.0000 
     33 H12        -6.6330   15.4040   22.3860 H         1 MOL         0.0000 
     34 H13        -7.5770   16.8630   22.1540 H         1 MOL         0.0000 
     35 H14        -8.0060   13.0950   21.6780 H         1 MOL         0.0000 
     36 H15        -5.6750   14.4170   20.4250 H         1 MOL         0.0000 
     37 H16        -5.3400   16.1340   20.3550 H         1 MOL         0.0000 
     38 H17        -6.2000   16.0090   17.9110 H         1 MOL         0.0000 
     39 H18        -6.3470   13.9170   16.8010 H         1 MOL         0.4500 
     40 H19        -7.3620   13.8320   18.0690 H         1 MOL         0.4500 
     41 H20        -5.8770   13.0100   18.1170 H         1 MOL         0.4500 
@<TRIPOS>BOND
     1    1    2 1    
     2    2    3 1    
     3    3    4 1    
     4    3   10 1    
     5    4    5 1    
     6    4    6 1    
     7    6    7 1    
     8    7    8 1    
     9    8    9 1    
    10    8   10 1    
    11    9   12 1    
    12   10   11 1    
    13   11   12 1    
    14   12   13 1    
    15   12   16 1    
    16   13   14 ar   
    17   13   15 ar   
    18   16   17 1    
    19   17   18 1    
    20   17   21 1    
    21   18   19 ar   
    22   18   20 ar   
    23    1   22 1    
    24    1   23 1    
    25    1   24 1    
    26    2   25 1    
    27    2   26 1    
    28    3   27 1    
    29    4   28 1    
    30    5   29 1    
    31    6   30 1    
    32    6   31 1    
    33    8   32 1    
    34    9   33 1    
    35    9   34 1    
    36   10   35 1    
    37   16   36 1    
    38   16   37 1    
    39   17   38 1    
    40   21   39 1    
    41   21   40 1    
    42   21   41 1    
@<TRIPOS>SUBSTRUCTURE
     1 MOL         1 PERM              0 ****  ****    0 ROOT 
@<TRIPOS>NORMAL
@<TRIPOS>ALT_TYPE
MMFF94_ALT_TYPE_SET 
MMFF94 1 CR 3 CR 4 CR 6 CR 8 CR 9 CR 10 CR 12 CR 16 CR 17 CR 13 CO2M \
18 CO2M 22 HC 23 HC 24 HC 27 HC 28 HC 30 HC 31 HC 32 HC \
33 HC 34 HC 35 HC 36 HC 37 HC 38 HC 25 HNR+ 26 HNR+ 39 HNR+ \
40 HNR+ 41 HNR+ 29 HOR 14 O2CM 15 O2CM 19 O2CM 20 O2CM \
5 OR 7 OR 11 OR 2 NR+ 21 NR+ 
