#	Name:			3e93_ligand
#	Creating user name:	suminyi
#	Creation time:		Sun Sep 30 06:51:00 2018

#	Modifying user name:	suminyi
#	Modification time:	Sun Sep 30 06:51:00 2018

@<TRIPOS>MOLECULE
3e93_ligand
   70    75     1     1     0
SMALL
MMFF94_CHARGES


@<TRIPOS>ATOM
      1 O25        40.9510   29.7070   36.1680 O.2       1 MOL        -0.5700 
      2 C22        40.0900   29.4510   35.3470 C.2       1 MOL         0.5438 
      3 N24        39.1380   28.5240   35.5810 N.am      1 MOL        -0.5470 
      4 C26        39.0950   27.6210   36.6870 C.ar      1 MOL         0.1170 
      5 C27        39.2980   28.0610   37.9940 C.ar      1 MOL        -0.1500 
      6 C29        39.4010   27.1610   39.0650 C.ar      1 MOL         0.1000 
      7 C32        39.2120   25.8000   38.7810 C.ar      1 MOL        -0.1500 
      8 C30        38.9480   25.3600   37.4870 C.ar      1 MOL        -0.1500 
      9 C28        38.8940   26.2700   36.4390 C.ar      1 MOL        -0.1500 
     10 N31        39.7180   27.5950   40.3500 N.pl3     1 MOL        -0.8382 
     11 C33        40.5150   28.8260   40.5570 C.3       1 MOL         0.3691 
     12 C35        40.3010   29.4350   41.9590 C.3       1 MOL         0.2800 
     13 O37        40.6090   28.4470   42.9680 O.3       1 MOL        -0.5600 
     14 C36        39.7790   27.2640   42.8600 C.3       1 MOL         0.2800 
     15 C34        39.9240   26.6250   41.4570 C.3       1 MOL         0.3691 
     16 C19        40.0380   30.2250   34.0450 C.ar      1 MOL         0.0862 
     17 C23        38.8950   30.3070   33.2480 C.ar      1 MOL        -0.1500 
     18 C20        38.8210   31.2080   32.1890 C.ar      1 MOL        -0.1500 
     19 C18        39.9310   31.9650   31.8220 C.ar      1 MOL        -0.1435 
     20 C21        39.8180   32.9910   30.7010 C.3       1 MOL         0.1435 
     21 C15        41.1440   31.7670   32.5060 C.ar      1 MOL         0.0000 
     22 C17        41.1710   30.9400   33.6430 C.ar      1 MOL        -0.1500 
     23 C12        42.4010   32.4030   32.0150 C.ar      1 MOL         0.0000 
     24 C9         43.2390   31.7000   31.1220 C.ar      1 MOL        -0.1500 
     25 C4         44.3950   32.2960   30.6040 C.ar      1 MOL        -0.1500 
     26 C1         44.6650   33.6090   30.9720 C.ar      1 MOL         0.0000 
     27 C3         43.8580   34.2850   31.8300 C.ar      1 MOL         0.1400 
     28 O8         44.3670   35.5280   32.0630 O.3       1 MOL        -0.0191 
     29 C7         42.7320   33.7110   32.3950 C.ar      1 MOL        -0.1500 
     30 C2         45.7720   34.4680   30.7210 C.2       1 MOL         0.1078 
     31 N6         45.6000   35.6390   31.3720 N.2       1 MOL        -0.4097 
     32 C5         47.0180   34.1440   29.9170 C.3       1 MOL         0.1810 
     33 C10        47.8720   33.0450   30.6080 C.3       1 MOL         0.0000 
     34 C13        49.1760   32.7570   29.8340 C.3       1 MOL         0.5030 
     35 N16        50.0190   34.0010   29.6360 N.4       1 MOL        -0.9060 
     36 C14        49.2070   35.0600   28.9230 C.3       1 MOL         0.5030 
     37 C11        47.9080   35.3980   29.6780 C.3       1 MOL         0.0000 
     38 H1         38.5590   28.2430   34.7980 H         1 MOL         0.3700 
     39 H2         39.4130   29.1230   38.1390 H         1 MOL         0.1500 
     40 H3         39.3220   25.0430   39.5460 H         1 MOL         0.1500 
     41 H4         38.8460   24.2960   37.2890 H         1 MOL         0.1500 
     42 H5         38.7560   25.9150   35.4220 H         1 MOL         0.1500 
     43 H6         40.2620   29.6040   39.8440 H         1 MOL         0.0000 
     44 H7         41.5740   28.5840   40.4370 H         1 MOL         0.0000 
     45 H8         39.2610   29.7560   42.0740 H         1 MOL         0.0000 
     46 H9         40.9620   30.2940   42.0920 H         1 MOL         0.0000 
     47 H10        38.7360   27.5510   43.0240 H         1 MOL         0.0000 
     48 H11        40.0790   26.5460   43.6280 H         1 MOL         0.0000 
     49 H12        40.9190   26.1790   41.3640 H         1 MOL         0.0000 
     50 H13        39.1880   25.8230   41.4140 H         1 MOL         0.0000 
     51 H14        38.0210   29.7240   33.4830 H         1 MOL         0.1500 
     52 H15        37.8780   31.3260   31.6610 H         1 MOL         0.1500 
     53 H16        38.8190   32.9910   30.2580 H         1 MOL         0.0000 
     54 H17        40.5480   32.7950   29.9130 H         1 MOL         0.0000 
     55 H18        39.9980   33.9950   31.0850 H         1 MOL         0.0000 
     56 H19        42.0910   30.8070   34.2050 H         1 MOL         0.1500 
     57 H20        42.9860   30.6810   30.8370 H         1 MOL         0.1500 
     58 H21        45.0540   31.7440   29.9360 H         1 MOL         0.1500 
     59 H22        42.1390   34.2610   33.1110 H         1 MOL         0.1500 
     60 H23        46.6990   33.7660   28.9420 H         1 MOL         0.0000 
     61 H24        47.3030   32.1180   30.6990 H         1 MOL         0.0000 
     62 H25        48.1220   33.3630   31.6250 H         1 MOL         0.0000 
     63 H26        48.9430   32.3530   28.8420 H         1 MOL         0.0000 
     64 H27        49.7750   32.0160   30.3770 H         1 MOL         0.0000 
     65 H28        50.8790   33.7780   29.0980 H         1 MOL         0.4500 
     66 H29        50.3290   34.3700   30.5620 H         1 MOL         0.4500 
     67 H30        48.9680   34.6840   27.9230 H         1 MOL         0.0000 
     68 H31        49.8260   35.9580   28.8200 H         1 MOL         0.0000 
     69 H32        48.1750   35.8490   30.6370 H         1 MOL         0.0000 
     70 H33        47.3520   36.1510   29.1190 H         1 MOL         0.0000 
@<TRIPOS>BOND
     1    1    2 2    
     2    2    3 am   
     3    2   16 1    
     4    3    4 1    
     5    4    5 ar   
     6    4    9 ar   
     7    5    6 ar   
     8    6    7 ar   
     9    6   10 1    
    10    7    8 ar   
    11    8    9 ar   
    12   10   11 1    
    13   10   15 1    
    14   11   12 1    
    15   12   13 1    
    16   13   14 1    
    17   14   15 1    
    18   16   17 ar   
    19   16   22 ar   
    20   17   18 ar   
    21   18   19 ar   
    22   19   20 1    
    23   19   21 ar   
    24   21   22 ar   
    25   21   23 1    
    26   23   24 ar   
    27   23   29 ar   
    28   24   25 ar   
    29   25   26 ar   
    30   26   27 ar   
    31   26   30 1    
    32   27   28 1    
    33   27   29 ar   
    34   28   31 1    
    35   30   31 2    
    36   30   32 1    
    37   32   33 1    
    38   32   37 1    
    39   33   34 1    
    40   34   35 1    
    41   35   36 1    
    42   36   37 1    
    43    3   38 1    
    44    5   39 1    
    45    7   40 1    
    46    8   41 1    
    47    9   42 1    
    48   11   43 1    
    49   11   44 1    
    50   12   45 1    
    51   12   46 1    
    52   14   47 1    
    53   14   48 1    
    54   15   49 1    
    55   15   50 1    
    56   17   51 1    
    57   18   52 1    
    58   20   53 1    
    59   20   54 1    
    60   20   55 1    
    61   22   56 1    
    62   24   57 1    
    63   25   58 1    
    64   29   59 1    
    65   32   60 1    
    66   33   61 1    
    67   33   62 1    
    68   34   63 1    
    69   34   64 1    
    70   35   65 1    
    71   35   66 1    
    72   36   67 1    
    73   36   68 1    
    74   37   69 1    
    75   37   70 1    
@<TRIPOS>SUBSTRUCTURE
     1 MOL         1 PERM              0 ****  ****    0 ROOT 
@<TRIPOS>NORMAL
@<TRIPOS>ALT_TYPE
MMFF94_ALT_TYPE_SET 
MMFF94 11 CR 12 CR 14 CR 15 CR 20 CR 32 CR 33 CR 34 CR 36 CR 37 CR 27 C5A \
30 C5B 26 C5B 4 CB 5 CB 6 CB 7 CB 8 CB 9 CB 16 CB 17 CB \
18 CB 19 CB 21 CB 22 CB 23 CB 24 CB 25 CB 29 CB 2 C=ON \
39 HC 40 HC 41 HC 42 HC 43 HC 44 HC 45 HC 46 HC 47 HC \
48 HC 49 HC 50 HC 51 HC 52 HC 53 HC 54 HC 55 HC 56 HC \
57 HC 58 HC 59 HC 60 HC 61 HC 62 HC 63 HC 64 HC 67 HC \
68 HC 69 HC 70 HC 38 HNCC 65 HNR+ 66 HNR+ 28 OFUR 1 O=CN \
13 OR 31 N5A 35 NR+ 3 NC=O 10 NC=C 
