#	Name:			3u8k_ligand
#	Creating user name:	suminyi
#	Creation time:		Sun Sep 30 06:48:40 2018

#	Modifying user name:	suminyi
#	Modification time:	Sun Sep 30 06:48:40 2018

@<TRIPOS>MOLECULE
3u8k_ligand
   36    37     1     1     0
SMALL
MMFF94_CHARGES


@<TRIPOS>ATOM
      1 C1         86.6930   73.0480  -11.1600 C.3       1 UNNAMED     0.5030 
      2 N1         85.7680   73.2550  -12.2950 N.4       1 UNNAMED    -0.9060 
      3 C2         85.5720   72.1350  -13.2520 C.3       1 UNNAMED     0.5030 
      4 C3         84.7560   70.9770  -12.6430 C.3       1 UNNAMED     0.0000 
      5 C4         85.3070   70.4590  -11.3050 C.3       1 UNNAMED     0.3691 
      6 N2         84.9650   71.3970  -10.2220 N.pl3     1 UNNAMED    -0.8382 
      7 C5         86.0170   72.4000   -9.9310 C.3       1 UNNAMED     0.3691 
      8 C6         81.4190   71.3480   -8.1490 C.ar      1 UNNAMED     0.1600 
      9 C7         81.4940   70.5360   -9.2920 C.ar      1 UNNAMED     0.0825 
     10 C8         82.7190   70.5510  -10.0070 C.ar      1 UNNAMED    -0.1500 
     11 C9         83.7910   71.3550   -9.5570 C.ar      1 UNNAMED     0.1000 
     12 C10        83.5700   72.1210   -8.3930 C.ar      1 UNNAMED     0.1600 
     13 N3         82.4150   72.1230   -7.7030 N.ar      1 UNNAMED    -0.6200 
     14 O1         80.3620   69.8160   -9.6520 O.3       1 UNNAMED    -0.3625 
     15 C11        80.2580   69.2650  -10.9650 C.3       1 UNNAMED     0.2800 
     16 C12        80.1880   67.7460  -10.8330 C.3       1 UNNAMED     0.0000 
     17 H1         87.1011   74.0243  -10.8596 H         1 UNNAMED     0.0000 
     18 H2         87.5129   72.3944  -11.4925 H         1 UNNAMED     0.0000 
     19 H3         86.1125   74.0421  -12.8221 H         1 UNNAMED     0.4500 
     20 H4         84.8647   73.4793  -11.9079 H         1 UNNAMED     0.4500 
     21 H5         86.5579   71.7518  -13.5539 H         1 UNNAMED     0.0000 
     22 H6         85.0398   72.5152  -14.1364 H         1 UNNAMED     0.0000 
     23 H7         84.7503   70.1433  -13.3605 H         1 UNNAMED     0.0000 
     24 H8         83.7262   71.3278  -12.4802 H         1 UNNAMED     0.0000 
     25 H9         86.4008   70.3650  -11.3735 H         1 UNNAMED     0.0000 
     26 H10        84.8673   69.4747  -11.0866 H         1 UNNAMED     0.0000 
     27 H11        85.5600   73.2039   -9.3353 H         1 UNNAMED     0.0000 
     28 H12        86.8000   71.9042   -9.3385 H         1 UNNAMED     0.0000 
     29 H13        80.4907   71.3472   -7.5893 H         1 UNNAMED     0.1500 
     30 H14        82.8331   69.9456  -10.8989 H         1 UNNAMED     0.1500 
     31 H15        84.3795   72.7455   -8.0329 H         1 UNNAMED     0.1500 
     32 H16        81.1389   69.5481  -11.5598 H         1 UNNAMED     0.0000 
     33 H17        79.3479   69.6396  -11.4564 H         1 UNNAMED     0.0000 
     34 H18        80.1072   67.2944  -11.8328 H         1 UNNAMED     0.0000 
     35 H19        79.3077   67.4702  -10.2339 H         1 UNNAMED     0.0000 
     36 H20        81.0987   67.3786  -10.3373 H         1 UNNAMED     0.0000 
@<TRIPOS>BOND
     1    1    2 1    
     2    7    1 1    
     3    2    3 1    
     4    4    3 1    
     5    5    4 1    
     6    6    5 1    
     7    6    7 1    
     8   11    6 1    
     9    9    8 ar   
    10    8   13 ar   
    11   10    9 ar   
    12    9   14 1    
    13   10   11 ar   
    14   11   12 ar   
    15   12   13 ar   
    16   14   15 1    
    17   15   16 1    
    18    1   17 1    
    19    1   18 1    
    20    2   19 1    
    21    2   20 1    
    22    3   21 1    
    23    3   22 1    
    24    4   23 1    
    25    4   24 1    
    26    5   25 1    
    27    5   26 1    
    28    7   27 1    
    29    7   28 1    
    30    8   29 1    
    31   10   30 1    
    32   12   31 1    
    33   15   32 1    
    34   15   33 1    
    35   16   34 1    
    36   16   35 1    
    37   16   36 1    
@<TRIPOS>SUBSTRUCTURE
     1 UNNAMED     1 PERM              0 ****  ****    0 ROOT 
@<TRIPOS>NORMAL
@<TRIPOS>ALT_TYPE
MMFF94_ALT_TYPE_SET 
MMFF94 1 CR 3 CR 4 CR 5 CR 7 CR 15 CR 16 CR 8 CB 9 CB 10 CB 11 CB 12 CB \
17 HC 18 HC 21 HC 22 HC 23 HC 24 HC 25 HC 26 HC 27 HC \
28 HC 29 HC 30 HC 31 HC 32 HC 33 HC 34 HC 35 HC 36 HC \
19 HNR+ 20 HNR+ 14 OC=C 13 NPYD 2 NR+ 6 NC=C 
