#	Name:			3u8k_ligand
#	Creating user name:	suminyi
#	Creation time:		Sun Sep 30 06:51:04 2018

#	Modifying user name:	suminyi
#	Modification time:	Sun Sep 30 06:51:04 2018

@<TRIPOS>MOLECULE
3u8k_ligand
   36    37     1     1     0
SMALL
MMFF94_CHARGES


@<TRIPOS>ATOM
      1 C1         86.6710   72.9630  -11.0070 C.3       1 MOL         0.5030 
      2 N1         85.7830   73.2870  -12.1910 N.4       1 MOL        -0.9060 
      3 C2         85.6310   72.1130  -13.1260 C.3       1 MOL         0.5030 
      4 C3         84.7540   70.9710  -12.5870 C.3       1 MOL         0.0000 
      5 C4         85.2150   70.4230  -11.2170 C.3       1 MOL         0.3691 
      6 N2         84.8930   71.3720  -10.1330 N.pl3     1 MOL        -0.8382 
      7 C5         85.9080   72.3990   -9.7910 C.3       1 MOL         0.3691 
      8 C6         81.3010   71.3610   -8.0400 C.ar      1 MOL         0.1600 
      9 C7         81.3340   70.7550   -9.2990 C.ar      1 MOL         0.0825 
     10 C8         82.5460   70.7120   -9.9980 C.ar      1 MOL        -0.1500 
     11 C9         83.6750   71.3430   -9.4540 C.ar      1 MOL         0.1000 
     12 C10        83.5190   71.9590   -8.1950 C.ar      1 MOL         0.1600 
     13 N3         82.3750   71.9530   -7.4730 N.ar      1 MOL        -0.6200 
     14 O1         80.1420   70.2660   -9.8150 O.3       1 MOL        -0.3625 
     15 C11        79.9650   69.7350  -11.1500 C.3       1 MOL         0.2800 
     16 C12        80.1740   68.2100  -11.1180 C.3       1 MOL         0.0000 
     17 H1         87.1720   73.8880  -10.7020 H         1 MOL         0.0000 
     18 H2         87.4340   72.2540  -11.3360 H         1 MOL         0.0000 
     19 H3         86.1490   74.1070  -12.7220 H         1 MOL         0.4500 
     20 H4         84.8360   73.5780  -11.8260 H         1 MOL         0.4500 
     21 H5         86.6340   71.7440  -13.3580 H         1 MOL         0.0000 
     22 H6         85.1810   72.4920  -14.0510 H         1 MOL         0.0000 
     23 H7         84.7660   70.1600  -13.3170 H         1 MOL         0.0000 
     24 H8         83.7240   71.3260  -12.5210 H         1 MOL         0.0000 
     25 H9         86.2910   70.2180  -11.2410 H         1 MOL         0.0000 
     26 H10        84.7160   69.4690  -11.0250 H         1 MOL         0.0000 
     27 H11        85.4010   73.2540   -9.3430 H         1 MOL         0.0000 
     28 H12        86.6250   72.0050   -9.0630 H         1 MOL         0.0000 
     29 H13        80.3800   71.3950   -7.4610 H         1 MOL         0.1500 
     30 H14        82.5930   70.2210  -10.9590 H         1 MOL         0.1500 
     31 H15        84.3530   72.4410   -7.6950 H         1 MOL         0.1500 
     32 H16        80.6540   70.2280  -11.8350 H         1 MOL         0.0000 
     33 H17        78.9470   69.9510  -11.4820 H         1 MOL         0.0000 
     34 H18        80.0940   67.7910  -12.1220 H         1 MOL         0.0000 
     35 H19        79.4090   67.7380  -10.4950 H         1 MOL         0.0000 
     36 H20        81.1530   67.9590  -10.7080 H         1 MOL         0.0000 
@<TRIPOS>BOND
     1    1    2 1    
     2    7    1 1    
     3    2    3 1    
     4    4    3 1    
     5    5    4 1    
     6    6    5 1    
     7    6    7 1    
     8   11    6 1    
     9    9    8 ar   
    10    8   13 ar   
    11   10    9 ar   
    12    9   14 1    
    13   10   11 ar   
    14   11   12 ar   
    15   12   13 ar   
    16   14   15 1    
    17   15   16 1    
    18    1   17 1    
    19    1   18 1    
    20    2   19 1    
    21    2   20 1    
    22    3   21 1    
    23    3   22 1    
    24    4   23 1    
    25    4   24 1    
    26    5   25 1    
    27    5   26 1    
    28    7   27 1    
    29    7   28 1    
    30    8   29 1    
    31   10   30 1    
    32   12   31 1    
    33   15   32 1    
    34   15   33 1    
    35   16   34 1    
    36   16   35 1    
    37   16   36 1    
@<TRIPOS>SUBSTRUCTURE
     1 MOL         1 PERM              0 ****  ****    0 ROOT 
@<TRIPOS>NORMAL
@<TRIPOS>ALT_TYPE
MMFF94_ALT_TYPE_SET 
MMFF94 1 CR 3 CR 4 CR 5 CR 7 CR 15 CR 16 CR 8 CB 9 CB 10 CB 11 CB 12 CB \
17 HC 18 HC 21 HC 22 HC 23 HC 24 HC 25 HC 26 HC 27 HC \
28 HC 29 HC 30 HC 31 HC 32 HC 33 HC 34 HC 35 HC 36 HC \
19 HNR+ 20 HNR+ 14 OC=C 13 NPYD 2 NR+ 6 NC=C 
