#	Name:			3zsx_ligand
#	Creating user name:	suminyi
#	Creation time:		Sun Sep 30 06:51:16 2018

#	Modifying user name:	suminyi
#	Modification time:	Sun Sep 30 06:51:16 2018

@<TRIPOS>MOLECULE
3zsx_ligand
   60    63     1     1     0
SMALL
MMFF94_CHARGES


@<TRIPOS>ATOM
      1 C1         -8.5470   42.0750   -0.2440 C.ar      1 MOL        -0.1500 
      2 C2        -10.5440   47.8670    5.8370 C.ar      1 MOL        -0.1500 
      3 C3         -8.2450   41.6060    1.0320 C.ar      1 MOL        -0.1500 
      4 C4         -8.3070   43.4090   -0.5670 C.ar      1 MOL        -0.1500 
      5 C5        -11.3960   48.8060    5.2740 C.ar      1 MOL        -0.1500 
      6 C6         -9.5870   47.2340    5.0480 C.ar      1 MOL        -0.1500 
      7 C7         -7.7290   42.4760    1.9930 C.ar      1 MOL        -0.1500 
      8 C8         -7.7890   44.2760    0.3940 C.ar      1 MOL        -0.1500 
      9 C9        -11.2650   49.1290    3.9290 C.ar      1 MOL        -0.1500 
     10 C10       -11.2990   45.5600   -1.5310 C.ar      1 MOL        -0.1500 
     11 C11       -12.1060   44.9760   -2.5060 C.ar      1 MOL        -0.1500 
     12 C12        -9.4550   47.5170    3.6780 C.ar      1 MOL         0.0862 
     13 C13       -13.1720   45.6760    0.0350 C.ar      1 MOL        -0.1790 
     14 C14        -7.5090   43.8190    1.6840 C.ar      1 MOL        -0.1435 
     15 C15       -10.2950   48.5110    3.1320 C.ar      1 MOL        -0.1435 
     16 C16       -11.8240   45.9600   -0.2930 C.ar      1 MOL        -0.1435 
     17 C17       -13.4430   44.8030   -2.2090 C.ar      1 MOL         0.0825 
     18 C18       -13.9530   45.1090   -0.9760 C.ar      1 MOL         0.0825 
     19 C19        -9.6580   50.1270   -1.5050 C.2       1 MOL        -0.3000 
     20 C20       -10.3430   49.0080   -1.3210 C.2       1 MOL        -0.2882 
     21 C21        -8.4240   46.7710    2.8480 C.2       1 MOL         0.5438 
     22 C22       -13.7810   45.9530    1.3860 C.2       1 MOL         0.9790 
     23 C23       -15.6680   44.4790   -2.3240 C.3       1 MOL         0.5600 
     24 C24        -6.9420   44.7660    2.7340 C.3       1 MOL         0.4436 
     25 C25       -10.2730   48.9160    1.6690 C.3       1 MOL         0.6465 
     26 C26       -10.8790   46.7300    0.6230 C.3       1 MOL         0.6465 
     27 C27       -11.5740   48.9080   -0.4490 C.3       1 MOL         0.6412 
     28 N28        -7.9710   45.6090    3.3570 N.am      1 MOL        -0.7301 
     29 N29       -11.2890   48.1740    0.8390 N.4       1 MOL        -0.9590 
     30 O30       -14.8340   45.4250    1.6810 O.co2     1 MOL        -0.9000 
     31 O31        -8.0180   47.1350    1.7620 O.2       1 MOL        -0.5700 
     32 O32       -13.1370   46.5430    2.2260 O.co2     1 MOL        -0.9000 
     33 O33       -14.4190   44.3520   -3.0450 O.3       1 MOL        -0.3625 
     34 O34       -15.2940   44.8410   -0.9700 O.3       1 MOL        -0.3625 
     35 H1         -8.9590   41.3960   -0.9880 H         1 MOL         0.1500 
     36 H2        -10.6210   47.6300    6.8980 H         1 MOL         0.1500 
     37 H3         -8.4100   40.5600    1.2810 H         1 MOL         0.1500 
     38 H4         -8.5180   43.7740   -1.5670 H         1 MOL         0.1500 
     39 H5        -12.1520   49.2950    5.8870 H         1 MOL         0.1500 
     40 H6         -8.9170   46.5320    5.5380 H         1 MOL         0.1500 
     41 H7         -7.5020   42.1040    2.9900 H         1 MOL         0.1500 
     42 H8         -7.6030   45.3160    0.1360 H         1 MOL         0.1500 
     43 H9        -11.9360   49.8720    3.4970 H         1 MOL         0.1500 
     44 H10       -10.2490   45.7290   -1.7390 H         1 MOL         0.1500 
     45 H11       -11.7200   44.6910   -3.4770 H         1 MOL         0.1500 
     46 H12        -8.7580   50.1450   -2.1150 H         1 MOL         0.1500 
     47 H13        -9.9590   51.0560   -1.0240 H         1 MOL         0.1500 
     48 H14       -10.0160   48.0840   -1.7830 H         1 MOL         0.1500 
     49 H15       -16.2060   43.5210   -2.3290 H         1 MOL         0.0000 
     50 H16       -16.2680   45.2870   -2.7710 H         1 MOL         0.0000 
     51 H17        -6.1840   45.4120    2.2820 H         1 MOL         0.0000 
     52 H18        -6.4510   44.1940    3.5270 H         1 MOL         0.0000 
     53 H19        -9.2910   48.7740    1.2180 H         1 MOL         0.0000 
     54 H20       -10.5270   49.9750    1.5980 H         1 MOL         0.0000 
     55 H21        -9.8740   46.7440    0.1970 H         1 MOL         0.0000 
     56 H22       -10.8310   46.2500    1.6030 H         1 MOL         0.0000 
     57 H23       -12.3710   48.3710   -0.9710 H         1 MOL         0.0000 
     58 H24       -11.9370   49.9040   -0.1850 H         1 MOL         0.0000 
     59 H25        -8.4790   45.2290    4.1460 H         1 MOL         0.3700 
     60 H26       -12.1620   48.1460    1.4090 H         1 MOL         0.4500 
@<TRIPOS>BOND
     1    3    1 ar   
     2    4    1 ar   
     3    5    2 ar   
     4    6    2 ar   
     5    7    3 ar   
     6    8    4 ar   
     7    9    5 ar   
     8   12    6 ar   
     9   14    7 ar   
    10   14    8 ar   
    11   15    9 ar   
    12   10   11 ar   
    13   16   10 ar   
    14   11   17 ar   
    15   15   12 ar   
    16   12   21 1    
    17   16   13 ar   
    18   13   18 ar   
    19   13   22 1    
    20   24   14 1    
    21   25   15 1    
    22   26   16 1    
    23   18   17 ar   
    24   17   33 1    
    25   18   34 1    
    26   20   19 2    
    27   27   20 1    
    28   21   28 am   
    29   21   31 2    
    30   22   30 ar   
    31   22   32 ar   
    32   23   33 1    
    33   34   23 1    
    34   28   24 1    
    35   29   25 1    
    36   29   26 1    
    37   27   29 1    
    38    1   35 1    
    39    2   36 1    
    40    3   37 1    
    41    4   38 1    
    42    5   39 1    
    43    6   40 1    
    44    7   41 1    
    45    8   42 1    
    46    9   43 1    
    47   10   44 1    
    48   11   45 1    
    49   19   46 1    
    50   19   47 1    
    51   20   48 1    
    52   23   49 1    
    53   23   50 1    
    54   24   51 1    
    55   24   52 1    
    56   25   53 1    
    57   25   54 1    
    58   26   55 1    
    59   26   56 1    
    60   27   57 1    
    61   27   58 1    
    62   28   59 1    
    63   29   60 1    
@<TRIPOS>SUBSTRUCTURE
     1 MOL         1 PERM              0 ****  ****    0 ROOT 
@<TRIPOS>NORMAL
@<TRIPOS>ALT_TYPE
MMFF94_ALT_TYPE_SET 
MMFF94 23 CR 24 CR 25 CR 26 CR 27 CR 1 CB 2 CB 3 CB 4 CB 5 CB 6 CB 7 CB \
8 CB 9 CB 10 CB 11 CB 12 CB 13 CB 14 CB 15 CB 16 CB 17 CB \
18 CB 22 CO2M 21 C=ON 19 C=C 20 C=C 35 HC 36 HC 37 HC \
38 HC 39 HC 40 HC 41 HC 42 HC 43 HC 44 HC 45 HC 46 HC \
47 HC 48 HC 49 HC 50 HC 51 HC 52 HC 53 HC 54 HC 55 HC \
56 HC 57 HC 58 HC 59 HNCO 60 HNR+ 30 O2CM 32 O2CM 31 O=CN \
33 OC=C 34 OC=C 29 NR+ 28 NC=O
