#	Name:			3jvr_ligand
#	Creating user name:	suminyi
#	Creation time:		Sun Sep 30 06:49:00 2018

#	Modifying user name:	suminyi
#	Modification time:	Sun Sep 30 06:49:00 2018

@<TRIPOS>MOLECULE
3jvr_ligand
   36    38     1     1     0
SMALL
MMFF94_CHARGES


@<TRIPOS>ATOM
      1 C          33.5020   -0.4570   17.2450 C.ar      1 AGX        -0.1500 
      2 N          31.6960   -2.2630   17.2440 N.pl3     1 AGX         0.0332 
      3 O          29.6340   -4.3190   18.3490 O.3       1 AGX        -0.4300 
      4 CL         25.4300   -3.1040   24.0080 Cl        1 AGX        -0.1770 
      5 C1         34.9240   -0.2480   17.3680 C.ar      1 AGX        -0.1500 
      6 N1         33.0950   -4.0190   17.5650 N.2       1 AGX        -0.5653 
      7 O1         30.8780   -5.0370   20.0350 O.2       1 AGX        -0.5700 
      8 CL1        27.8890   -3.3520   26.1570 Cl        1 AGX        -0.1770 
      9 C2         35.8100   -1.3650   17.5700 C.ar      1 AGX        -0.1500 
     10 N2         28.6940   -4.2190   20.2800 N.am      1 AGX        -0.5470 
     11 C3         35.2680   -2.6930   17.6520 C.ar      1 AGX        -0.1500 
     12 C4         32.9910   -1.7930   17.3300 C.ar      1 AGX        -0.1516 
     13 C5         33.8510   -2.8760   17.5260 C.ar      1 AGX         0.2272 
     14 C6         31.8170   -3.6120   17.3910 C.2       1 AGX         0.0065 
     15 C7         30.6800   -4.6180   17.3710 C.3       1 AGX         0.4600 
     16 C8         29.8180   -4.5620   19.6690 C.2       1 AGX         0.7800 
     17 C9         28.6060   -4.0250   21.6600 C.ar      1 AGX         0.1170 
     18 C10        29.6810   -4.1380   22.6140 C.ar      1 AGX        -0.1500 
     19 C11        29.4400   -3.9230   23.9980 C.ar      1 AGX        -0.1500 
     20 C12        28.1270   -3.5960   24.4610 C.ar      1 AGX         0.1770 
     21 C13        27.0460   -3.4840   23.5100 C.ar      1 AGX         0.1770 
     22 C14        27.3000   -3.6970   22.1180 C.ar      1 AGX        -0.1500 
     23 C15        29.7870   -4.6020   16.2040 C.3       1 AGX         0.0000 
     24 H1         32.8322    0.3813   17.0911 H         1 AGX         0.1500 
     25 H2         30.8340   -1.7177   17.1011 H         1 AGX         0.2700 
     26 H3         35.3281    0.7561   17.3080 H         1 AGX         0.1500 
     27 H4         36.8784   -1.2050   17.6596 H         1 AGX         0.1500 
     28 H5         27.8701   -4.0931   19.7273 H         1 AGX         0.3700 
     29 H6         35.9207   -3.5445   17.8069 H         1 AGX         0.1500 
     30 H7         31.1136   -5.6174   17.5235 H         1 AGX         0.0000 
     31 H8         30.6792   -4.3885   22.2736 H         1 AGX         0.1500 
     32 H9         30.2559   -4.0073   24.7066 H         1 AGX         0.1500 
     33 H10        26.4884   -3.6074   21.4050 H         1 AGX         0.1500 
     34 H11        30.3687   -4.8120   15.2943 H         1 AGX         0.0000 
     35 H12        29.3150   -3.6123   16.1170 H         1 AGX         0.0000 
     36 H13        29.0090   -5.3698   16.3271 H         1 AGX         0.0000 
@<TRIPOS>BOND
     1    1    5 ar   
     2   12    1 ar   
     3    2   12 1    
     4   14    2 1    
     5    3   15 1    
     6   16    3 1    
     7   21    4 1    
     8    9    5 ar   
     9    6   13 1    
    10   14    6 2    
    11   16    7 2    
    12   20    8 1    
    13   11    9 ar   
    14   10   16 am   
    15   17   10 1    
    16   13   11 ar   
    17   13   12 ar   
    18   15   14 1    
    19   15   23 1    
    20   18   17 ar   
    21   17   22 ar   
    22   19   18 ar   
    23   20   19 ar   
    24   20   21 ar   
    25   21   22 ar   
    26    1   24 1    
    27    2   25 1    
    28    5   26 1    
    29    9   27 1    
    30   10   28 1    
    31   11   29 1    
    32   15   30 1    
    33   18   31 1    
    34   19   32 1    
    35   22   33 1    
    36   23   34 1    
    37   23   35 1    
    38   23   36 1    
@<TRIPOS>SUBSTRUCTURE
     1 AGX         1 PERM              0 ****  ****    0 ROOT 
@<TRIPOS>NORMAL
@<TRIPOS>ALT_TYPE
MMFF94_ALT_TYPE_SET 
MMFF94 15 CR 23 CR 14 C5A 12 C5A 13 C5B 1 CB 5 CB 9 CB 11 CB 17 CB 18 CB \
19 CB 20 CB 21 CB 22 CB 16 COO 24 HC 26 HC 27 HC 29 HC \
30 HC 31 HC 32 HC 33 HC 34 HC 35 HC 36 HC 25 HPYL 28 HNCC \
7 O=CN 3 OC=O 2 NPYL 6 N5B 10 NC=O 4 CL 8 CL 
