#	Name:			3jvr_ligand
#	Creating user name:	suminyi
#	Creation time:		Sun Sep 30 06:51:04 2018

#	Modifying user name:	suminyi
#	Modification time:	Sun Sep 30 06:51:04 2018

@<TRIPOS>MOLECULE
3jvr_ligand
   36    38     1     1     0
SMALL
MMFF94_CHARGES


@<TRIPOS>ATOM
      1 C          33.5060   -0.5880   17.3140 C.ar      1 MOL        -0.1500 
      2 N          31.7290   -2.2740   17.3200 N.pl3     1 MOL         0.0332 
      3 O          29.5350   -4.1350   18.3370 O.3       1 MOL        -0.4300 
      4 Cl         25.3890   -3.1460   24.1480 Cl        1 MOL        -0.1770 
      5 C1         34.8910   -0.4380   17.4290 C.ar      1 MOL        -0.1500 
      6 N1         33.0660   -4.1090   17.6190 N.2       1 MOL        -0.5653 
      7 O1         30.4730   -5.2260   20.1050 O.2       1 MOL        -0.5700 
      8 Cl1        27.8490   -3.1920   26.1550 Cl        1 MOL        -0.1770 
      9 C2         35.7120   -1.5590   17.6240 C.ar      1 MOL        -0.1500 
     10 N2         28.6980   -3.8360   20.3180 N.am      1 MOL        -0.5470 
     11 C3         35.1570   -2.8430   17.6980 C.ar      1 MOL        -0.1500 
     12 C4         32.9970   -1.8780   17.3850 C.ar      1 MOL        -0.1516 
     13 C5         33.7790   -2.9770   17.5680 C.ar      1 MOL         0.2272 
     14 C6         31.7940   -3.6460   17.4750 C.2       1 MOL         0.0065 
     15 C7         30.5900   -4.5620   17.4340 C.3       1 MOL         0.4600 
     16 C8         29.6530   -4.4630   19.6330 C.2       1 MOL         0.7800 
     17 C9         28.5080   -3.7630   21.7230 C.ar      1 MOL         0.1170 
     18 C10        29.5850   -3.7920   22.6070 C.ar      1 MOL        -0.1500 
     19 C11        29.3710   -3.6460   23.9740 C.ar      1 MOL        -0.1500 
     20 C12        28.0810   -3.4370   24.4590 C.ar      1 MOL         0.1770 
     21 C13        27.0020   -3.4000   23.5740 C.ar      1 MOL         0.1770 
     22 C14        27.2200   -3.5600   22.2080 C.ar      1 MOL        -0.1500 
     23 C15        29.9980   -4.5570   16.0100 C.3       1 MOL         0.0000 
     24 H1         32.8520    0.2730   17.2000 H         1 MOL         0.1500 
     25 H2         30.8940   -1.7180   17.1490 H         1 MOL         0.2700 
     26 H3         35.3340    0.5560   17.4180 H         1 MOL         0.1500 
     27 H4         36.7820   -1.4210   17.7700 H         1 MOL         0.1500 
     28 H5         28.0760   -3.2760   19.7510 H         1 MOL         0.3700 
     29 H6         35.7780   -3.7130   17.8820 H         1 MOL         0.1500 
     30 H7         30.8900   -5.5850   17.6830 H         1 MOL         0.0000 
     31 H8         30.5980   -3.8980   22.2240 H         1 MOL         0.1500 
     32 H9         30.2150   -3.6790   24.6540 H         1 MOL         0.1500 
     33 H10        26.3900   -3.5210   21.5080 H         1 MOL         0.1500 
     34 H11        30.7260   -4.9370   15.2910 H         1 MOL         0.0000 
     35 H12        29.7110   -3.5490   15.7090 H         1 MOL         0.0000 
     36 H13        29.1060   -5.1890   15.9680 H         1 MOL         0.0000 
@<TRIPOS>BOND
     1    1    5 ar   
     2   12    1 ar   
     3    2   12 1    
     4   14    2 1    
     5    3   15 1    
     6   16    3 1    
     7   21    4 1    
     8    9    5 ar   
     9    6   13 1    
    10   14    6 2    
    11   16    7 2    
    12   20    8 1    
    13   11    9 ar   
    14   10   16 am   
    15   17   10 1    
    16   13   11 ar   
    17   13   12 ar   
    18   15   14 1    
    19   15   23 1    
    20   18   17 ar   
    21   17   22 ar   
    22   19   18 ar   
    23   20   19 ar   
    24   20   21 ar   
    25   21   22 ar   
    26    1   24 1    
    27    2   25 1    
    28    5   26 1    
    29    9   27 1    
    30   10   28 1    
    31   11   29 1    
    32   15   30 1    
    33   18   31 1    
    34   19   32 1    
    35   22   33 1    
    36   23   34 1    
    37   23   35 1    
    38   23   36 1    
@<TRIPOS>SUBSTRUCTURE
     1 MOL         1 PERM              0 ****  ****    0 ROOT 
@<TRIPOS>NORMAL
@<TRIPOS>ALT_TYPE
MMFF94_ALT_TYPE_SET 
MMFF94 15 CR 23 CR 14 C5A 12 C5A 13 C5B 1 CB 5 CB 9 CB 11 CB 17 CB 18 CB \
19 CB 20 CB 21 CB 22 CB 16 COO 24 HC 26 HC 27 HC 29 HC \
30 HC 31 HC 32 HC 33 HC 34 HC 35 HC 36 HC 25 HPYL 28 HNCC \
7 O=CN 3 OC=O 2 NPYL 6 N5B 10 NC=O 4 CL 8 CL 
