#	Name:			3udh_ligand
#	Creating user name:	suminyi
#	Creation time:		Sun Sep 30 06:50:56 2018

#	Modifying user name:	suminyi
#	Modification time:	Sun Sep 30 06:50:56 2018

@<TRIPOS>MOLECULE
3udh_ligand
   27    29     1     1     0
SMALL
MMFF94_CHARGES


@<TRIPOS>ATOM
      1 C1         22.9460   36.4200   41.4300 C.3       1 MOL         0.2045 
      2 C2         24.3750   36.9250   41.2490 C.ar      1 MOL        -0.1435 
      3 C3         22.9110   36.2500   42.9570 C.2       1 MOL         0.5690 
      4 C4         21.8570   37.3960   40.9120 C.3       1 MOL         0.0000 
      5 C5         22.6760   35.0890   40.6960 C.3       1 MOL         0.5030 
      6 C6         25.0000   37.0120   42.4690 C.ar      1 MOL         0.1170 
      7 C7         25.0700   37.2210   40.0810 C.ar      1 MOL        -0.1500 
      8 N1         24.1000   36.6020   43.4590 N.am      1 MOL        -0.5470 
      9 O1         22.0000   35.8420   43.6500 O.2       1 MOL        -0.5700 
     10 C8         20.8110   36.5070   40.2290 C.3       1 MOL         0.5030 
     11 N2         21.5960   35.3640   39.6860 N.4       1 MOL        -0.9060 
     12 C9         26.3240   37.4000   42.6080 C.ar      1 MOL        -0.1500 
     13 C10        26.4050   37.6300   40.1940 C.ar      1 MOL        -0.1500 
     14 C11        27.0310   37.7110   41.4450 C.ar      1 MOL        -0.1500 
     15 H1         22.2800   38.0670   40.1600 H         1 MOL         0.0000 
     16 H2         21.4190   37.9900   41.7110 H         1 MOL         0.0000 
     17 H3         22.3020   34.3250   41.3830 H         1 MOL         0.0000 
     18 H4         23.5650   34.7150   40.1760 H         1 MOL         0.0000 
     19 H5         24.5950   37.1140   39.1060 H         1 MOL         0.1500 
     20 H6         24.3180   36.6290   44.4430 H         1 MOL         0.3700 
     21 H7         20.2900   37.0060   39.4020 H         1 MOL         0.0000 
     22 H8         20.0900   36.1050   40.9460 H         1 MOL         0.0000 
     23 H9         21.0070   34.5250   39.4250 H         1 MOL         0.4500 
     24 H10        22.0090   35.6830   38.7660 H         1 MOL         0.4500 
     25 H11        26.7970   37.4390   43.5860 H         1 MOL         0.1500 
     26 H12        26.9740   37.8670   39.3010 H         1 MOL         0.1500 
     27 H13        28.0760   38.0060   41.5100 H         1 MOL         0.1500 
@<TRIPOS>BOND
     1    1    2 1    
     2    1    3 1    
     3    1    4 1    
     4    1    5 1    
     5    2    6 ar   
     6    2    7 ar   
     7    3    8 am   
     8    3    9 2    
     9    4   10 1    
    10    5   11 1    
    11    6    8 1    
    12    6   12 ar   
    13    7   13 ar   
    14   10   11 1    
    15   12   14 ar   
    16   13   14 ar   
    17    4   15 1    
    18    4   16 1    
    19    5   17 1    
    20    5   18 1    
    21    7   19 1    
    22    8   20 1    
    23   10   21 1    
    24   10   22 1    
    25   11   23 1    
    26   11   24 1    
    27   12   25 1    
    28   13   26 1    
    29   14   27 1    
@<TRIPOS>SUBSTRUCTURE
     1 MOL         1 PERM              0 ****  ****    0 ROOT 
@<TRIPOS>NORMAL
@<TRIPOS>ALT_TYPE
MMFF94_ALT_TYPE_SET 
MMFF94 1 CR 4 CR 5 CR 10 CR 2 CB 6 CB 7 CB 12 CB 13 CB 14 CB 3 C=ON \
15 HC 16 HC 17 HC 18 HC 19 HC 21 HC 22 HC 25 HC 26 HC \
27 HC 20 HNCC 23 HNR+ 24 HNR+ 9 O=CN 11 NR+ 8 NC=O 
