#	Name:			1ps3_ligand
#	Creating user name:	suminyi
#	Creation time:		Sun Sep 30 06:50:56 2018

#	Modifying user name:	suminyi
#	Modification time:	Sun Sep 30 06:50:56 2018

@<TRIPOS>MOLECULE
1ps3_ligand
   28    29     1     1     0
SMALL
MMFF94_CHARGES


@<TRIPOS>ATOM
      1 C4         31.4720   66.6050    6.8480 C.3       1 MOL         0.2800 
      2 O4         31.6450   67.3870    5.6610 O.3       1 MOL        -0.6800 
      3 C3         32.6770   66.8370    7.7990 C.3       1 MOL         0.2800 
      4 O3         33.8000   66.1630    7.2130 O.3       1 MOL        -0.6800 
      5 C2         32.4070   66.3540    9.2650 C.3       1 MOL         0.2800 
      6 O2         33.3980   65.4410    9.7320 O.3       1 MOL        -0.6800 
      7 C1         31.0210   65.6870    9.4370 C.3       1 MOL         0.6002 
      8 N9         30.6130   65.5700   10.8380 N.am      1 MOL        -0.7301 
      9 C8         29.6050   66.3780   11.1610 C.2       1 MOL         0.6300 
     10 O8         29.1250   66.5650   12.2680 O.2       1 MOL        -0.5700 
     11 C7         29.1520   67.0230    9.8100 C.2       1 MOL         0.6300 
     12 O7         28.2410   67.8170    9.6260 O.2       1 MOL        -0.5700 
     13 N          29.9590   66.5140    8.8600 N.am      1 MOL        -0.6602 
     14 C5         30.0950   66.9810    7.4680 C.3       1 MOL         0.3001 
     15 C6         28.9670   66.4280    6.5590 C.3       1 MOL         0.2800 
     16 O6         27.6720   66.6210    7.1540 O.3       1 MOL        -0.6800 
     17 H1         31.4660   65.5410    6.5930 H         1 MOL         0.0000 
     18 H2         32.6250   67.5310    5.4740 H         1 MOL         0.4000 
     19 H3         32.8930   67.9040    7.8370 H         1 MOL         0.0000 
     20 H4         34.4700   66.8220    6.8110 H         1 MOL         0.4000 
     21 H5         32.4350   67.2310    9.9120 H         1 MOL         0.0000 
     22 H6         34.2820   65.9480    9.7840 H         1 MOL         0.4000 
     23 H7         31.0020   64.6850    8.9730 H         1 MOL         0.0000 
     24 H8         31.3170   65.3260   11.5430 H         1 MOL         0.3700 
     25 H9         30.0260   68.0720    7.4720 H         1 MOL         0.0000 
     26 H10        29.1290   65.3610    6.3840 H         1 MOL         0.0000 
     27 H11        29.0040   66.9440    5.5970 H         1 MOL         0.0000 
     28 H12        27.7970   67.3930    7.7800 H         1 MOL         0.4000 
@<TRIPOS>BOND
     1    1    2 1    
     2    1    3 1    
     3    1   14 1    
     4    3    4 1    
     5    3    5 1    
     6    5    6 1    
     7    5    7 1    
     8    7    8 1    
     9    7   13 1    
    10    8    9 am   
    11    9   10 2    
    12    9   11 1    
    13   11   12 2    
    14   11   13 am   
    15   13   14 1    
    16   14   15 1    
    17   15   16 1    
    18    1   17 1    
    19    2   18 1    
    20    3   19 1    
    21    4   20 1    
    22    5   21 1    
    23    6   22 1    
    24    7   23 1    
    25    8   24 1    
    26   14   25 1    
    27   15   26 1    
    28   15   27 1    
    29   16   28 1    
@<TRIPOS>SUBSTRUCTURE
     1 MOL         1 PERM              0 ****  ****    0 ROOT 
@<TRIPOS>NORMAL
@<TRIPOS>ALT_TYPE
MMFF94_ALT_TYPE_SET 
MMFF94 1 CR 3 CR 5 CR 7 CR 14 CR 15 CR 9 C=ON 11 C=ON 17 HC 19 HC 21 HC \
23 HC 25 HC 26 HC 27 HC 24 HNCO 18 HOR 20 HOR 22 HOR \
28 HOR 10 O=CN 12 O=CN 2 OR 4 OR 6 OR 16 OR 8 NC=O 13 NC=O \

