4de3_ligand

Created by X-TOOL on Fri Sep 26 17:34:54 2014
 31 33  0  0  0  0  0  0  0  0999 V2000
   -8.8980   55.8690   13.4010  O 0  0  0  1  0  1
   -8.6180   55.8480   12.1980  C 0  0  0  1  0  3
   -9.3210   56.8030   11.2640  C 0  0  0  1  0  3
   -9.0510   56.7520    9.8870  C 0  0  0  2  0  3
   -9.6910   57.6170    9.0100  C 0  0  0  2  0  3
  -10.2150   57.7410   11.7670  C 0  0  0  2  0  3
  -10.8420   58.6270   10.8870  C 0  0  0  1  0  3
  -12.0240   59.9130   11.5790 Br 0  0  0  1  0  1
  -10.5960   58.5780    9.5220  C 0  0  0  2  0  3
   -7.7270   55.0220   11.6640  N 0  0  0  2  0  3
   -6.7450   54.3770   12.4450  C 0  0  0  1  0  3
   -7.1350   53.7290   13.6200  C 0  0  0  2  0  3
   -6.1890   53.0690   14.4150  C 0  0  0  2  0  3
   -4.8380   52.9950   14.0690  C 0  0  0  2  0  3
   -4.4380   53.6120   12.8800  C 0  0  0  1  0  3
   -5.3880   54.2990   12.0990  C 0  0  0  2  0  3
   -3.0910   53.5560   12.5310  C 0  0  0  1  0  3
   -2.5220   53.9710   11.4090  N 0  0  0  1  0  2
   -1.1770   53.7360   11.4080  N 0  0  0  1  0  2
   -0.8980   53.1040   12.5660  N 0  0  0  2  0  3
   -2.1100   53.0170   13.2490  N 0  0  0  1  0  2
   -8.3368   56.0312    9.5056  H 0  0  0  1  0  1
   -9.5000   57.5574    7.9446  H 0  0  0  1  0  1
  -10.4234   57.7847   12.8299  H 0  0  0  1  0  1
  -11.0932   59.2706    8.8526  H 0  0  0  1  0  1
   -7.7525   54.8518   10.6789  H 0  0  0  1  0  1
   -8.1771   53.7371   13.9185  H 0  0  0  1  0  1
   -6.5183   52.5977   15.3340  H 0  0  0  1  0  1
   -4.1247   52.4774   14.7001  H 0  0  0  1  0  1
   -5.0557   54.7888   11.1908  H 0  0  0  1  0  1
    0.0197   52.7576   12.8804  H 0  0  0  1  0  1
  1  2  2  0  0  2
  2  3  1  0  0  2
  2 10  1  0  0  2
  3  4  4  0  0  1
  3  6  4  0  0  1
  4  5  4  0  0  1
  5  9  4  0  0  1
  6  7  4  0  0  1
  7  8  1  0  0  2
  7  9  4  0  0  1
 10 11  1  0  0  2
 11 12  4  0  0  1
 11 16  4  0  0  1
 12 13  4  0  0  1
 13 14  4  0  0  1
 14 15  4  0  0  1
 15 16  4  0  0  1
 15 17  1  0  0  2
 17 18  1  0  0  1
 17 21  2  0  0  1
 18 19  2  0  0  1
 19 20  1  0  0  1
 20 21  1  0  0  1
  4 22  1  0  0  2
  5 23  1  0  0  2
  6 24  1  0  0  2
  9 25  1  0  0  2
 10 26  1  0  0  2
 12 27  1  0  0  2
 13 28  1  0  0  2
 14 29  1  0  0  2
 16 30  1  0  0  2
 20 31  1  0  0  2
M  END
> <MOLECULAR_FORMULA>
C14H10N5OBr

> <MOLECULAR_WEIGHT>
344.1

> <NUM_HB_ATOMS>
6  

> <NUM_ROTOR>
0  

> <XLOGP2>
3.30 

$$$$
