#	Name:			4de3_ligand
#	Creating user name:	suminyi
#	Creation time:		Sun Sep 30 06:49:02 2018

#	Modifying user name:	suminyi
#	Modification time:	Sun Sep 30 06:49:02 2018

@<TRIPOS>MOLECULE
4de3_ligand
   31    33     1     1     0
SMALL
MMFF94_CHARGES


@<TRIPOS>ATOM
      1 O21        -8.8980   55.8690   13.4010 O.2       1 DN8        -0.5700 
      2 C7         -8.6180   55.8480   12.1980 C.2       1 DN8         0.5438 
      3 C4         -9.3210   56.8030   11.2640 C.ar      1 DN8         0.0862 
      4 C3         -9.0510   56.7520    9.8870 C.ar      1 DN8        -0.1500 
      5 C2         -9.6910   57.6170    9.0100 C.ar      1 DN8        -0.1500 
      6 C5        -10.2150   57.7410   11.7670 C.ar      1 DN8        -0.1500 
      7 C6        -10.8420   58.6270   10.8870 C.ar      1 DN8         0.1110 
      8 BR1       -12.0240   59.9130   11.5790 Br        1 DN8        -0.1110 
      9 C1        -10.5960   58.5780    9.5220 C.ar      1 DN8        -0.1500 
     10 N8         -7.7270   55.0220   11.6640 N.am      1 DN8        -0.5470 
     11 C9         -6.7450   54.3770   12.4450 C.ar      1 DN8         0.1170 
     12 C14        -7.1350   53.7290   13.6200 C.ar      1 DN8        -0.1500 
     13 C13        -6.1890   53.0690   14.4150 C.ar      1 DN8        -0.1500 
     14 C12        -4.8380   52.9950   14.0690 C.ar      1 DN8        -0.1500 
     15 C11        -4.4380   53.6120   12.8800 C.ar      1 DN8         0.0540 
     16 C10        -5.3880   54.2990   12.0990 C.ar      1 DN8        -0.1500 
     17 C15        -3.0910   53.5560   12.5310 C.2       1 DN8         0.4620 
     18 N19        -2.5220   53.9710   11.4090 N.2       1 DN8        -0.2272 
     19 N18        -1.1770   53.7360   11.4080 N.2       1 DN8        -0.4180 
     20 N17        -0.8980   53.1040   12.5660 N.pl3     1 DN8         0.5660 
     21 N16        -2.1100   53.0170   13.2490 N.2       1 DN8        -0.7068 
     22 H1         -8.3368   56.0312    9.5056 H         1 DN8         0.1500 
     23 H2         -9.5000   57.5574    7.9446 H         1 DN8         0.1500 
     24 H3        -10.4234   57.7847   12.8299 H         1 DN8         0.1500 
     25 H4        -11.0932   59.2706    8.8526 H         1 DN8         0.1500 
     26 H5         -7.7525   54.8518   10.6789 H         1 DN8         0.3700 
     27 H6         -8.1771   53.7371   13.9185 H         1 DN8         0.1500 
     28 H7         -6.5183   52.5977   15.3340 H         1 DN8         0.1500 
     29 H8         -4.1247   52.4774   14.7001 H         1 DN8         0.1500 
     30 H9         -5.0557   54.7888   11.1908 H         1 DN8         0.1500 
     31 H10         0.0197   52.7576   12.8804 H         1 DN8         0.2700 
@<TRIPOS>BOND
     1    1    2 2    
     2    2    3 1    
     3    2   10 am   
     4    3    4 ar   
     5    3    6 ar   
     6    4    5 ar   
     7    5    9 ar   
     8    6    7 ar   
     9    7    8 1    
    10    7    9 ar   
    11   10   11 1    
    12   11   12 ar   
    13   11   16 ar   
    14   12   13 ar   
    15   13   14 ar   
    16   14   15 ar   
    17   15   16 ar   
    18   15   17 1    
    19   17   18 1    
    20   17   21 2    
    21   18   19 2    
    22   19   20 1    
    23   20   21 1    
    24    4   22 1    
    25    5   23 1    
    26    6   24 1    
    27    9   25 1    
    28   10   26 1    
    29   12   27 1    
    30   13   28 1    
    31   14   29 1    
    32   16   30 1    
    33   20   31 1    
@<TRIPOS>SUBSTRUCTURE
     1 DN8         1 PERM              0 ****  ****    0 ROOT 
@<TRIPOS>NORMAL
@<TRIPOS>ALT_TYPE
MMFF94_ALT_TYPE_SET 
MMFF94 17 C5B 3 CB 4 CB 5 CB 6 CB 7 CB 9 CB 11 CB 12 CB 13 CB 14 CB \
15 CB 16 CB 2 C=ON 22 HC 23 HC 24 HC 25 HC 27 HC 28 HC \
29 HC 30 HC 31 HPYL 26 HNCC 1 O=CN 20 NPYL 19 N5A 21 N5A \
18 N5B 10 NC=O 8 BR 
