#	Name:			4de3_ligand
#	Creating user name:	suminyi
#	Creation time:		Sun Sep 30 06:50:59 2018

#	Modifying user name:	suminyi
#	Modification time:	Sun Sep 30 06:50:59 2018

@<TRIPOS>MOLECULE
4de3_ligand
   31    33     1     1     0
SMALL
MMFF94_CHARGES


@<TRIPOS>ATOM
      1 O21        -9.0830   55.8560   13.3060 O.2       1 MOL        -0.5700 
      2 C7         -8.6780   55.9440   12.1610 C.2       1 MOL         0.5438 
      3 C4         -9.3590   56.8630   11.1870 C.ar      1 MOL         0.0862 
      4 C3         -9.0880   56.8810    9.8100 C.ar      1 MOL        -0.1500 
      5 C2         -9.7990   57.7400    8.9680 C.ar      1 MOL        -0.1500 
      6 C5        -10.3220   57.7440   11.6940 C.ar      1 MOL        -0.1500 
      7 C6        -10.9930   58.6250   10.8580 C.ar      1 MOL         0.1110 
      8 Br1       -12.2160   59.8690   11.6080 Br        1 MOL        -0.1110 
      9 C1        -10.7530   58.6110    9.4900 C.ar      1 MOL        -0.1500 
     10 N8         -7.6260   55.2150   11.7290 N.am      1 MOL        -0.5470 
     11 C9         -6.7420   54.4110   12.5170 C.ar      1 MOL         0.1170 
     12 C14        -7.1870   53.6820   13.6210 C.ar      1 MOL        -0.1500 
     13 C13        -6.2780   53.0110   14.4320 C.ar      1 MOL        -0.1500 
     14 C12        -4.9240   53.0190   14.1190 C.ar      1 MOL        -0.1500 
     15 C11        -4.4650   53.6790   12.9730 C.ar      1 MOL         0.0540 
     16 C10        -5.3890   54.3760   12.1810 C.ar      1 MOL        -0.1500 
     17 C15        -3.0640   53.6330   12.6050 C.2       1 MOL         0.4620 
     18 N19        -2.6300   53.8890   11.3370 N.2       1 MOL        -0.2272 
     19 N18        -1.3250   53.7440   11.3000 N.2       1 MOL        -0.4180 
     20 N17        -1.0120   53.4270   12.5670 N.pl3     1 MOL         0.5660 
     21 N16        -2.0530   53.3250   13.4220 N.2       1 MOL        -0.7068 
     22 H1         -8.3500   56.2190    9.3640 H         1 MOL         0.1500 
     23 H2         -9.6180   57.7400    7.8910 H         1 MOL         0.1500 
     24 H3        -10.5160   57.7890   12.7610 H         1 MOL         0.1500 
     25 H4        -11.3050   59.2760    8.8290 H         1 MOL         0.1500 
     26 H5         -7.3070   55.4090   10.7980 H         1 MOL         0.3700 
     27 H6         -8.2450   53.6470   13.8680 H         1 MOL         0.1500 
     28 H7         -6.6300   52.4730   15.3090 H         1 MOL         0.1500 
     29 H8         -4.2520   52.4450   14.7460 H         1 MOL         0.1500 
     30 H9         -5.0490   54.9350   11.3120 H         1 MOL         0.1500 
     31 H10        -0.0370   53.2830   12.8310 H         1 MOL         0.2700 
@<TRIPOS>BOND
     1    1    2 2    
     2    2    3 1    
     3    2   10 am   
     4    3    4 ar   
     5    3    6 ar   
     6    4    5 ar   
     7    5    9 ar   
     8    6    7 ar   
     9    7    8 1    
    10    7    9 ar   
    11   10   11 1    
    12   11   12 ar   
    13   11   16 ar   
    14   12   13 ar   
    15   13   14 ar   
    16   14   15 ar   
    17   15   16 ar   
    18   15   17 1    
    19   17   18 1    
    20   17   21 2    
    21   18   19 2    
    22   19   20 1    
    23   20   21 1    
    24    4   22 1    
    25    5   23 1    
    26    6   24 1    
    27    9   25 1    
    28   10   26 1    
    29   12   27 1    
    30   13   28 1    
    31   14   29 1    
    32   16   30 1    
    33   20   31 1    
@<TRIPOS>SUBSTRUCTURE
     1 MOL         1 PERM              0 ****  ****    0 ROOT 
@<TRIPOS>NORMAL
@<TRIPOS>ALT_TYPE
MMFF94_ALT_TYPE_SET 
MMFF94 17 C5B 3 CB 4 CB 5 CB 6 CB 7 CB 9 CB 11 CB 12 CB 13 CB 14 CB \
15 CB 16 CB 2 C=ON 22 HC 23 HC 24 HC 25 HC 27 HC 28 HC \
29 HC 30 HC 31 HPYL 26 HNCC 1 O=CN 20 NPYL 19 N5A 21 N5A \
18 N5B 10 NC=O 8 BR 
