#	Name:			3g2n_ligand
#	Creating user name:	suminyi
#	Creation time:		Sun Sep 30 06:50:59 2018

#	Modifying user name:	suminyi
#	Modification time:	Sun Sep 30 06:50:59 2018

@<TRIPOS>MOLECULE
3g2n_ligand
   37    38     1     1     0
SMALL
MMFF94_CHARGES


@<TRIPOS>ATOM
      1 C9         37.2520   23.7290   30.1710 C.ar      1 MOL        -0.1500 
      2 C10        38.3910   24.0230   30.9200 C.ar      1 MOL        -0.1500 
      3 C11        38.3970   25.1080   31.7890 C.ar      1 MOL        -0.1500 
      4 C12        37.2470   25.8780   31.9430 C.ar      1 MOL        -0.1500 
      5 C13        36.0970   25.5670   31.2160 C.ar      1 MOL        -0.1500 
      6 C8         36.0860   24.4970   30.3140 C.ar      1 MOL         0.0862 
      7 C7         34.8240   24.2080   29.5450 C.2       1 MOL         0.5438 
      8 O7         33.8150   24.8790   29.6310 O.2       1 MOL        -0.5700 
      9 N1         34.8260   23.1540   28.7200 N.am      1 MOL        -0.7301 
     10 C1         33.6790   22.7480   27.9240 C.3       1 MOL         0.5801 
     11 O5         33.5570   21.3200   28.0910 O.3       1 MOL        -0.5600 
     12 C5         32.4080   20.7500   27.4260 C.3       1 MOL         0.2800 
     13 C6         32.2880   19.2690   27.8320 C.3       1 MOL         0.2800 
     14 O6         33.3720   18.5190   27.2940 O.3       1 MOL        -0.6800 
     15 C4         32.5460   20.9570   25.8990 C.3       1 MOL         0.2800 
     16 O4         31.3800   20.3990   25.2730 O.3       1 MOL        -0.6800 
     17 C3         32.6660   22.4710   25.5820 C.3       1 MOL         0.2800 
     18 O3         32.9340   22.6710   24.1820 O.3       1 MOL        -0.6800 
     19 C2         33.7920   23.1320   26.4220 C.3       1 MOL         0.2800 
     20 O2         33.6590   24.5600   26.3040 O.3       1 MOL        -0.6800 
     21 H1         37.2980   22.9020   29.4720 H         1 MOL         0.1500 
     22 H2         39.2890   23.4090   30.8200 H         1 MOL         0.1500 
     23 H3         39.3020   25.3470   32.3460 H         1 MOL         0.1500 
     24 H4         37.2450   26.7100   32.6460 H         1 MOL         0.1500 
     25 H5         35.1920   26.1550   31.3610 H         1 MOL         0.1500 
     26 H6         35.6740   22.6390   28.5770 H         1 MOL         0.3700 
     27 H7         32.7810   23.2160   28.3600 H         1 MOL         0.0000 
     28 H8         31.5140   21.2710   27.7730 H         1 MOL         0.0000 
     29 H9         31.3480   18.8640   27.4490 H         1 MOL         0.0000 
     30 H10        32.2840   19.1820   28.9210 H         1 MOL         0.0000 
     31 H11        34.1720   18.6560   27.8890 H         1 MOL         0.4000 
     32 H12        33.4450   20.4460   25.5400 H         1 MOL         0.0000 
     33 H13        31.5220   19.4230   25.2470 H         1 MOL         0.4000 
     34 H14        31.7160   22.9490   25.8330 H         1 MOL         0.0000 
     35 H15        32.8270   23.6670   23.9930 H         1 MOL         0.4000 
     36 H16        34.7630   22.8060   26.0390 H         1 MOL         0.0000 
     37 H17        34.5050   24.9310   25.9670 H         1 MOL         0.4000 
@<TRIPOS>BOND
     1    1    2 ar   
     2    1    6 ar   
     3    2    3 ar   
     4    3    4 ar   
     5    4    5 ar   
     6    5    6 ar   
     7    6    7 1    
     8    7    8 2    
     9    7    9 am   
    10    9   10 1    
    11   10   11 1    
    12   10   19 1    
    13   11   12 1    
    14   12   13 1    
    15   12   15 1    
    16   13   14 1    
    17   15   16 1    
    18   15   17 1    
    19   17   18 1    
    20   17   19 1    
    21   19   20 1    
    22    1   21 1    
    23    2   22 1    
    24    3   23 1    
    25    4   24 1    
    26    5   25 1    
    27    9   26 1    
    28   10   27 1    
    29   12   28 1    
    30   13   29 1    
    31   13   30 1    
    32   14   31 1    
    33   15   32 1    
    34   16   33 1    
    35   17   34 1    
    36   18   35 1    
    37   19   36 1    
    38   20   37 1    
@<TRIPOS>SUBSTRUCTURE
     1 MOL         1 PERM              0 ****  ****    0 ROOT 
@<TRIPOS>NORMAL
@<TRIPOS>ALT_TYPE
MMFF94_ALT_TYPE_SET 
MMFF94 10 CR 12 CR 13 CR 15 CR 17 CR 19 CR 1 CB 2 CB 3 CB 4 CB 5 CB \
6 CB 7 C=ON 21 HC 22 HC 23 HC 24 HC 25 HC 27 HC 28 HC \
29 HC 30 HC 32 HC 34 HC 36 HC 26 HNCO 31 HOR 33 HOR 35 HOR \
37 HOR 8 O=CN 11 OR 14 OR 16 OR 18 OR 20 OR 9 NC=O 
