3g2n_ligand

Created by X-TOOL on Fri Sep 26 17:34:47 2014
 37 38  0  0  0  0  0  0  0  0999 V2000
   37.1580   23.4870   30.4910  C 0  0  0  2  0  3
   38.3350   23.8670   31.1330  C 0  0  0  2  0  3
   38.4750   25.1600   31.6300  C 0  0  0  2  0  3
   37.4290   26.0740   31.4840  C 0  0  0  2  0  3
   36.2470   25.6910   30.8390  C 0  0  0  2  0  3
   36.1140   24.3940   30.3420  C 0  0  0  1  0  3
   34.8170   23.9710   29.6420  C 0  0  0  1  0  3
   33.7260   24.2890   30.1100  O 0  0  0  1  0  1
   34.9690   23.2500   28.5340  N 0  0  0  2  0  3
   33.7690   22.7880   27.7880  C 0  0  0  2  0  4
   33.5440   21.3610   28.0580  O 0  0  0  1  0  2
   32.3720   20.8560   27.4120  C 0  0  0  2  0  4
   32.2320   19.3880   27.8560  C 0  0  0  3  0  4
   33.3160   18.6190   27.3300  O 0  0  0  2  0  2
   32.5250   21.0280   25.8800  C 0  0  0  2  0  4
   31.3420   20.5750   25.2380  O 0  0  0  2  0  2
   32.7830   22.4940   25.4940  C 0  0  0  2  0  4
   33.0530   22.5840   24.0950  O 0  0  0  2  0  2
   33.9700   23.0640   26.2880  C 0  0  0  2  0  4
   34.1230   24.4740   26.0520  O 0  0  0  2  0  2
   37.0555   22.4790   30.1056  H 0  0  0  1  0  1
   39.1437   23.1540   31.2457  H 0  0  0  1  0  1
   39.3913   25.4559   32.1278  H 0  0  0  1  0  1
   37.5326   27.0814   31.8707  H 0  0  0  1  0  1
   35.4360   26.4013   30.7258  H 0  0  0  1  0  1
   35.8850   23.0203   28.2051  H 0  0  0  1  0  1
   32.8906   23.3524   28.1341  H 0  0  0  1  0  1
   31.4865   21.4190   27.7420  H 0  0  0  1  0  1
   31.2806   18.9821   27.4817  H 0  0  0  1  0  1
   32.2461   19.3355   28.9546  H 0  0  0  1  0  1
   34.1376   18.9691   27.6538  H 0  0  0  1  0  1
   33.3761   20.4195   25.5404  H 0  0  0  1  0  1
   31.4332   20.6794   24.2981  H 0  0  0  1  0  1
   31.8846   23.0853   25.7247  H 0  0  0  1  0  1
   32.3061   22.2566   23.6078  H 0  0  0  1  0  1
   34.8878   22.5561   25.9568  H 0  0  0  1  0  1
   34.2762   24.6243   25.1265  H 0  0  0  1  0  1
  1  2  4  0  0  1
  1  6  4  0  0  1
  2  3  4  0  0  1
  3  4  4  0  0  1
  4  5  4  0  0  1
  5  6  4  0  0  1
  6  7  1  0  0  2
  7  8  2  0  0  2
  7  9  1  0  0  2
  9 10  1  0  0  2
 10 11  1  0  0  1
 10 19  1  0  0  1
 11 12  1  0  0  1
 12 13  1  0  0  2
 12 15  1  0  0  1
 13 14  1  0  0  2
 15 16  1  0  0  2
 15 17  1  0  0  1
 17 18  1  0  0  2
 17 19  1  0  0  1
 19 20  1  0  0  2
  1 21  1  0  0  2
  2 22  1  0  0  2
  3 23  1  0  0  2
  4 24  1  0  0  2
  5 25  1  0  0  2
  9 26  1  0  0  2
 10 27  1  0  0  2
 12 28  1  0  0  2
 13 29  1  0  0  2
 13 30  1  0  0  2
 14 31  1  0  0  2
 15 32  1  0  0  2
 16 33  1  0  0  2
 17 34  1  0  0  2
 18 35  1  0  0  2
 19 36  1  0  0  2
 20 37  1  0  0  2
M  END
> <MOLECULAR_FORMULA>
C13H17NO6

> <MOLECULAR_WEIGHT>
283.1

> <NUM_HB_ATOMS>
7  

> <NUM_ROTOR>
2  

> <XLOGP2>
-0.68

$$$$
