#	Name:			4gr0_ligand
#	Creating user name:	suminyi
#	Creation time:		Sun Sep 30 06:51:00 2018

#	Modifying user name:	suminyi
#	Modification time:	Sun Sep 30 06:51:00 2018

@<TRIPOS>MOLECULE
4gr0_ligand
   74    77     1     1     0
SMALL
MMFF94_CHARGES


@<TRIPOS>ATOM
      1 O4         -9.5660   26.0030   -4.7670 O.2       1 MOL        -0.5700 
      2 N1         -6.3080   22.5890   -6.3070 N.2       1 MOL        -0.4097 
      3 O1         -7.4670   22.9740   -5.6020 O.3       1 MOL        -0.0191 
      4 C25        -8.5850   26.3060   -4.1280 C.2       1 MOL         0.5690 
      5 C17        -8.0390   25.4700   -2.9930 C.3       1 MOL         0.0610 
      6 C16        -7.9780   23.9820   -3.3970 C.3       1 MOL         0.1800 
      7 C14        -5.6930   23.8440   -4.5130 C.2       1 MOL        -0.1500 
      8 C13        -5.2570   23.1050   -5.6480 C.2       1 MOL         0.2348 
      9 C12        -3.8500   22.9990   -5.9760 C.ar      1 MOL         0.0540 
     10 C11        -3.4430   22.2110   -7.0600 C.ar      1 MOL        -0.1500 
     11 C10        -2.1060   22.1710   -7.4660 C.ar      1 MOL        -0.1500 
     12 C7         -1.1410   22.9250   -6.7720 C.ar      1 MOL         0.0000 
     13 C8         -1.5480   23.6600   -5.6480 C.ar      1 MOL        -0.1500 
     14 C9         -2.8740   23.6950   -5.2610 C.ar      1 MOL        -0.1500 
     15 C15        -7.0360   23.6740   -4.5240 C.2       1 MOL        -0.0400 
     16 Cl1         3.3060   20.5430   -8.2720 Cl        1 MOL        -0.1770 
     17 C1          2.3890   21.9380   -7.8340 C.ar      1 MOL         0.1770 
     18 C2          1.0100   21.8560   -7.6390 C.ar      1 MOL        -0.1500 
     19 C3          3.0660   23.1330   -7.6220 C.ar      1 MOL        -0.1500 
     20 C4          2.3640   24.2560   -7.2050 C.ar      1 MOL        -0.1500 
     21 C5          1.0020   24.1830   -6.9640 C.ar      1 MOL        -0.1500 
     22 C6          0.3030   22.9800   -7.1650 C.ar      1 MOL         0.0000 
     23 C18        -9.0070   25.6740   -1.7980 C.3       1 MOL         0.0000 
     24 P1         -8.4120   25.2170   -0.1850 P.3       1 MOL         1.0390 
     25 O2         -6.9070   25.0900   -0.0160 O.co2     1 MOL        -0.9500 
     26 O3         -7.8000   23.8810    0.0420 O.co2     1 MOL        -0.9500 
     27 C19        -9.5120   25.7370    1.1240 C.ar      1 MOL        -0.1390 
     28 C20        -9.0380   25.9860    2.4170 C.ar      1 MOL        -0.1500 
     29 C21        -9.9120   26.4240    3.4100 C.ar      1 MOL        -0.1500 
     30 C22       -11.2620   26.5950    3.1210 C.ar      1 MOL         0.1110 
     31 Br1       -12.4400   27.1870    4.4830 Br        1 MOL        -0.1110 
     32 C23       -11.7510   26.3290    1.8470 C.ar      1 MOL        -0.1500 
     33 C24       -10.8790   25.9010    0.8480 C.ar      1 MOL        -0.1500 
     34 N2         -8.0050   27.4970   -4.2910 N.am      1 MOL        -0.7301 
     35 C26        -8.5260   28.5040   -5.2300 C.3       1 MOL         0.3611 
     36 C30        -7.7970   28.4760   -6.5640 C.2       1 MOL         0.5690 
     37 O7         -6.6170   28.2010   -6.6430 O.2       1 MOL        -0.5700 
     38 C27        -8.4530   29.9090   -4.5990 C.3       1 MOL         0.0000 
     39 N3         -8.4950   28.8770   -7.6370 N.am      1 MOL        -0.7301 
     40 C31        -7.8680   29.1520   -8.9540 C.3       1 MOL         0.3611 
     41 C35        -6.9020   30.3410   -8.9850 C.2       1 MOL         0.5690 
     42 O10        -6.1080   30.5560   -9.8670 O.2       1 MOL        -0.5700 
     43 C32        -8.9480   29.3690  -10.0290 C.3       1 MOL         0.0000 
     44 N4         -6.9690   31.2340   -7.9990 N.am      1 MOL        -0.8000 
     45 H1         -7.0380   25.8230   -2.7390 H         1 MOL         0.0000 
     46 H2         -8.9810   23.6410   -3.6760 H         1 MOL         0.0000 
     47 H3         -7.7030   23.3820   -2.5390 H         1 MOL         0.0000 
     48 H4         -5.0720   24.3300   -3.7840 H         1 MOL         0.1500 
     49 H5         -4.1800   21.6270   -7.6080 H         1 MOL         0.1500 
     50 H6         -1.8270   21.5750   -8.3320 H         1 MOL         0.1500 
     51 H7         -0.8290   24.2010   -5.0370 H         1 MOL         0.1500 
     52 H8         -3.1010   24.2880   -4.3870 H         1 MOL         0.1500 
     53 H9          0.5120   20.9050   -7.7840 H         1 MOL         0.1500 
     54 H10         4.1440   23.1710   -7.7420 H         1 MOL         0.1500 
     55 H11         2.8720   25.1880   -7.0170 H         1 MOL         0.1500 
     56 H12         0.4880   25.0720   -6.6020 H         1 MOL         0.1500 
     57 H13        -9.9350   25.1360   -1.9890 H         1 MOL         0.0000 
     58 H14        -9.2710   26.7310   -1.7340 H         1 MOL         0.0000 
     59 H15        -7.9860   25.8730    2.6630 H         1 MOL         0.1500 
     60 H16        -9.5520   26.6380    4.4140 H         1 MOL         0.1500 
     61 H17       -12.8130   26.4490    1.6360 H         1 MOL         0.1500 
     62 H18       -11.2950   25.6730   -0.1360 H         1 MOL         0.1500 
     63 H19        -7.1300   27.6710   -3.8260 H         1 MOL         0.3700 
     64 H20        -9.5720   28.2830   -5.4450 H         1 MOL         0.0000 
     65 H21        -8.8600   30.6600   -5.2790 H         1 MOL         0.0000 
     66 H22        -7.4210   30.1770   -4.3660 H         1 MOL         0.0000 
     67 H23        -9.0320   29.9440   -3.6730 H         1 MOL         0.0000 
     68 H24        -9.5060   28.9510   -7.5370 H         1 MOL         0.3700 
     69 H25        -7.2600   28.2870   -9.2360 H         1 MOL         0.0000 
     70 H26        -8.4840   29.4930  -11.0110 H         1 MOL         0.0000 
     71 H27        -9.5370   30.2610   -9.8080 H         1 MOL         0.0000 
     72 H28        -9.6200   28.5140  -10.0770 H         1 MOL         0.0000 
     73 H29        -6.3590   32.0270   -8.0650 H         1 MOL         0.3700 
     74 H30        -7.6450   31.1190   -7.2710 H         1 MOL         0.3700 
@<TRIPOS>BOND
     1    4    1 2    
     2    2    3 1    
     3    8    2 2    
     4   15    3 1    
     5    5    4 1    
     6    4   34 am   
     7    6    5 1    
     8    5   23 1    
     9   15    6 1    
    10    8    7 1    
    11    7   15 2    
    12    9    8 1    
    13   10    9 ar   
    14   14    9 ar   
    15   11   10 ar   
    16   12   11 ar   
    17   12   13 ar   
    18   22   12 1    
    19   13   14 ar   
    20   17   16 1    
    21   18   17 ar   
    22   17   19 ar   
    23   18   22 ar   
    24   19   20 ar   
    25   20   21 ar   
    26   21   22 ar   
    27   23   24 1    
    28   24   25 ar   
    29   24   26 ar   
    30   24   27 1    
    31   27   28 ar   
    32   27   33 ar   
    33   28   29 ar   
    34   29   30 ar   
    35   30   31 1    
    36   30   32 ar   
    37   32   33 ar   
    38   34   35 1    
    39   35   36 1    
    40   35   38 1    
    41   36   37 2    
    42   36   39 am   
    43   39   40 1    
    44   40   41 1    
    45   40   43 1    
    46   41   42 2    
    47   41   44 am   
    48    5   45 1    
    49    6   46 1    
    50    6   47 1    
    51    7   48 1    
    52   10   49 1    
    53   11   50 1    
    54   13   51 1    
    55   14   52 1    
    56   18   53 1    
    57   19   54 1    
    58   20   55 1    
    59   21   56 1    
    60   23   57 1    
    61   23   58 1    
    62   28   59 1    
    63   29   60 1    
    64   32   61 1    
    65   33   62 1    
    66   34   63 1    
    67   35   64 1    
    68   38   65 1    
    69   38   66 1    
    70   38   67 1    
    71   39   68 1    
    72   40   69 1    
    73   43   70 1    
    74   43   71 1    
    75   43   72 1    
    76   44   73 1    
    77   44   74 1    
@<TRIPOS>SUBSTRUCTURE
     1 MOL         1 PERM              0 ****  ****    0 ROOT 
@<TRIPOS>NORMAL
@<TRIPOS>ALT_TYPE
MMFF94_ALT_TYPE_SET 
MMFF94 5 CR 6 CR 23 CR 35 CR 38 CR 40 CR 43 CR 15 C5A 7 C5B 8 C5B 9 CB \
10 CB 11 CB 12 CB 13 CB 14 CB 17 CB 18 CB 19 CB 20 CB \
21 CB 22 CB 27 CB 28 CB 29 CB 30 CB 32 CB 33 CB 4 C=ON \
36 C=ON 41 C=ON 45 HC 46 HC 47 HC 48 HC 49 HC 50 HC \
51 HC 52 HC 53 HC 54 HC 55 HC 56 HC 57 HC 58 HC 59 HC \
60 HC 61 HC 62 HC 64 HC 65 HC 66 HC 67 HC 69 HC 70 HC \
71 HC 72 HC 63 HNCO 68 HNCO 73 HNCO 74 HNCO 3 OFUR 1 O=CN \
37 O=CN 42 O=CN 25 O2P 26 O2P 2 N5A 34 NC=O 39 NC=O \
44 NC=O 24 PO2 16 CL 31 BR 
