#	Name:			3lka_ligand
#	Creating user name:	suminyi
#	Creation time:		Sun Sep 30 06:48:43 2018

#	Modifying user name:	suminyi
#	Modification time:	Sun Sep 30 06:48:43 2018

@<TRIPOS>MOLECULE
3lka_ligand
   21    21     1     1     0
SMALL
MMFF94_CHARGES


@<TRIPOS>ATOM
      1 C1          2.5270   -5.5670    7.6560 C.ar      1 M4S        -0.1500 
      2 N1          2.5500   -5.1900    4.1660 N.am      1 M4S        -0.9780 
      3 O1          5.4310   -6.2350    9.7660 O.3       1 M4S        -0.3625 
      4 S1          1.9130   -6.0750    5.1750 S.o2      1 M4S         1.4470 
      5 C2          3.3880   -5.6130    8.7410 C.ar      1 M4S        -0.1500 
      6 O2          1.8930   -7.4750    4.6600 O.2       1 M4S        -0.6500 
      7 C3          4.6400   -6.2080    8.6440 C.ar      1 M4S         0.0825 
      8 O3          0.5000   -5.6780    5.4410 O.2       1 M4S        -0.6500 
      9 C4          5.0640   -6.7450    7.4250 C.ar      1 M4S        -0.1500 
     10 C5          2.9190   -6.1190    6.4370 C.ar      1 M4S        -0.0090 
     11 C6          6.6490   -6.9730    9.7830 C.3       1 M4S         0.2800 
     12 C7          4.1900   -6.7080    6.3270 C.ar      1 M4S        -0.1500 
     13 H1          1.5521   -5.1035    7.7547 H         1 M4S         0.1500 
     14 H2          3.4997   -5.3448    3.8936 H         1 M4S         0.4200 
     15 H3          2.0291   -4.4395    3.7592 H         1 M4S         0.4200 
     16 H4          3.0787   -5.1763    9.6837 H         1 M4S         0.1500 
     17 H5          6.0511   -7.1826    7.3292 H         1 M4S         0.1500 
     18 H6          7.1289   -6.8659   10.7670 H         1 M4S         0.0000 
     19 H7          7.3221   -6.5877    9.0030 H         1 M4S         0.0000 
     20 H8          6.4368   -8.0353    9.5923 H         1 M4S         0.0000 
     21 H9          4.4997   -7.1394    5.3820 H         1 M4S         0.1500 
@<TRIPOS>BOND
     1    5    1 ar   
     2    1   10 ar   
     3    4    2 am   
     4    7    3 1    
     5    3   11 1    
     6    4    6 2    
     7    4    8 2    
     8   10    4 1    
     9    5    7 ar   
    10    7    9 ar   
    11    9   12 ar   
    12   10   12 ar   
    13    1   13 1    
    14    2   14 1    
    15    2   15 1    
    16    5   16 1    
    17    9   17 1    
    18   11   18 1    
    19   11   19 1    
    20   11   20 1    
    21   12   21 1    
@<TRIPOS>SUBSTRUCTURE
     1 M4S         1 PERM              0 ****  ****    0 ROOT 
@<TRIPOS>NORMAL
@<TRIPOS>ALT_TYPE
MMFF94_ALT_TYPE_SET 
MMFF94 11 CR 1 CB 5 CB 7 CB 9 CB 10 CB 12 CB 13 HC 16 HC 17 HC 18 HC \
19 HC 20 HC 21 HC 14 HNSO 15 HNSO 6 O2S 8 O2S 3 OC=C \
2 NSO2 4 SO2N 
