#	Name:			4w9c_ligand
#	Creating user name:	suminyi
#	Creation time:		Sun Sep 30 06:49:02 2018

#	Modifying user name:	suminyi
#	Modification time:	Sun Sep 30 06:49:02 2018

@<TRIPOS>MOLECULE
4w9c_ligand
   55    57     1     1     0
SMALL
MMFF94_CHARGES


@<TRIPOS>ATOM
      1 CAA        13.6520   52.6960   95.7110 C.3       1 MOL         0.0000 
      2 CBB        13.0840   52.6570   94.2900 C.3       1 MOL         0.0000 
      3 CAB        11.6390   52.0960   94.3970 C.3       1 MOL         0.0000 
      4 CAC        13.9430   51.7560   93.3800 C.3       1 MOL         0.0000 
      5 CAN        13.0760   54.0850   93.7930 C.3       1 MOL         0.0610 
      6 CAT        12.5740   54.1120   92.3080 C.2       1 MOL         0.5690 
      7 OAD        11.3700   53.9510   92.0850 O.2       1 MOL        -0.5700 
      8 N          13.4740   54.3850   91.3150 N.am      1 MOL        -0.6602 
      9 CD2        14.9390   54.6780   91.3810 C.3       1 MOL         0.3001 
     10 CG         15.2070   55.5800   90.1760 C.3       1 MOL         0.2800 
     11 OD1        14.8570   56.9400   90.4830 O.3       1 MOL        -0.6800 
     12 CB         14.2860   55.0130   89.1150 C.3       1 MOL         0.0000 
     13 CA         13.0250   54.5340   89.8790 C.3       1 MOL         0.3611 
     14 C          12.5530   53.3490   89.2950 C.2       1 MOL         0.5690 
     15 O          13.0450   52.2780   89.6230 O.2       1 MOL        -0.5700 
     16 NAR        11.5950   53.4750   88.3310 N.am      1 MOL        -0.7301 
     17 CAM        11.0660   52.3140   87.5990 C.3       1 MOL         0.4436 
     18 CAV        11.8410   52.0940   86.4170 C.ar      1 MOL        -0.1435 
     19 CAH        11.5780   50.9640   85.6260 C.ar      1 MOL        -0.1500 
     20 CAJ        12.3200   50.6930   84.4690 C.ar      1 MOL        -0.1500 
     21 CAG        12.8780   52.9410   86.0090 C.ar      1 MOL        -0.1500 
     22 CAI        13.6170   52.6730   84.8580 C.ar      1 MOL        -0.1500 
     23 CAW        13.3470   51.5580   84.0760 C.ar      1 MOL         0.0530 
     24 CAX        14.0830   51.3450   82.9780 C.2       1 MOL         0.0870 
     25 OAS        15.4220   51.6000   82.8790 O.3       1 MOL        -0.2800 
     26 CAK        15.7930   51.2640   81.6300 C.2       1 MOL         0.3281 
     27 NAQ        14.7070   50.8220   80.9890 N.2       1 MOL        -0.5653 
     28 CAL        13.6510   50.8710   81.8150 C.2       1 MOL         0.0772 
     29 H          13.6802   51.6763   96.1227 H         1 MOL         0.0000 
     30 H          13.0132   53.3294   96.3440 H         1 MOL         0.0000 
     31 H          14.6708   53.1102   95.6874 H         1 MOL         0.0000 
     32 H          11.1885   52.0496   93.3945 H         1 MOL         0.0000 
     33 H          11.0365   52.7549   95.0396 H         1 MOL         0.0000 
     34 H          11.6689   51.0864   94.8325 H         1 MOL         0.0000 
     35 H          14.9617   52.1659   93.3145 H         1 MOL         0.0000 
     36 H          13.4974   51.7187   92.3750 H         1 MOL         0.0000 
     37 H          13.9828   50.7407   93.8014 H         1 MOL         0.0000 
     38 H          14.0942   54.4981   93.8445 H         1 MOL         0.0000 
     39 H          12.4031   54.6888   94.4197 H         1 MOL         0.0000 
     40 H          15.5243   53.7495   91.3087 H         1 MOL         0.0000 
     41 H          15.1893   55.1972   92.3179 H         1 MOL         0.0000 
     42 H          16.2596   55.5272   89.8611 H         1 MOL         0.0000 
     43 H          15.0284   57.4884   89.7264 H         1 MOL         0.4000 
     44 H          14.7669   54.1692   88.5987 H         1 MOL         0.0000 
     45 H          14.0203   55.7884   88.3815 H         1 MOL         0.0000 
     46 H          12.2304   55.2925   89.8220 H         1 MOL         0.0000 
     47 H          11.2416   54.3853   88.1156 H         1 MOL         0.3700 
     48 H          10.0192   52.5042   87.3195 H         1 MOL         0.0000 
     49 H          11.1179   51.4224   88.2412 H         1 MOL         0.0000 
     50 H          10.7834   50.2865   85.9170 H         1 MOL         0.1500 
     51 H          12.0982   49.8121   83.8776 H         1 MOL         0.1500 
     52 H          13.1104   53.8206   86.5984 H         1 MOL         0.1500 
     53 H          14.4158   53.3463   84.5686 H         1 MOL         0.1500 
     54 H          16.7975   51.3388   81.2160 H         1 MOL         0.1500 
     55 H          12.6300   50.5769   81.5764 H         1 MOL         0.1500 
@<TRIPOS>BOND
     1    1    2 1    
     2    2    3 1    
     3    2    4 1    
     4    2    5 1    
     5    5    6 1    
     6    6    7 2    
     7    6    8 am   
     8    8    9 1    
     9    8   13 1    
    10    9   10 1    
    11   10   11 1    
    12   10   12 1    
    13   12   13 1    
    14   13   14 1    
    15   14   15 2    
    16   14   16 am   
    17   16   17 1    
    18   17   18 1    
    19   18   19 ar   
    20   18   21 ar   
    21   19   20 ar   
    22   20   23 ar   
    23   21   22 ar   
    24   22   23 ar   
    25   23   24 1    
    26   24   25 1    
    27   24   28 2    
    28   25   26 1    
    29   26   27 2    
    30   27   28 1    
    31    1   29 1    
    32    1   30 1    
    33    1   31 1    
    34    3   32 1    
    35    3   33 1    
    36    3   34 1    
    37    4   35 1    
    38    4   36 1    
    39    4   37 1    
    40    5   38 1    
    41    5   39 1    
    42    9   40 1    
    43    9   41 1    
    44   10   42 1    
    45   11   43 1    
    46   12   44 1    
    47   12   45 1    
    48   13   46 1    
    49   16   47 1    
    50   17   48 1    
    51   17   49 1    
    52   19   50 1    
    53   20   51 1    
    54   21   52 1    
    55   22   53 1    
    56   26   54 1    
    57   28   55 1    
@<TRIPOS>SUBSTRUCTURE
     1 MOL         1 PERM              0 ****  ****    0 ROOT 
@<TRIPOS>NORMAL
@<TRIPOS>ALT_TYPE
MMFF94_ALT_TYPE_SET 
MMFF94 1 CR 2 CR 3 CR 4 CR 5 CR 9 CR 10 CR 12 CR 13 CR 17 CR 24 C5A \
26 C5A 28 C5B 18 CB 19 CB 20 CB 21 CB 22 CB 23 CB 6 C=ON \
14 C=ON 29 HC 30 HC 31 HC 32 HC 33 HC 34 HC 35 HC 36 HC \
37 HC 38 HC 39 HC 40 HC 41 HC 42 HC 44 HC 45 HC 46 HC \
48 HC 49 HC 50 HC 51 HC 52 HC 53 HC 54 HC 55 HC 47 HNCO \
43 HOR 25 OFUR 7 O=CN 15 O=CN 11 OR 27 N5B 8 NC=O 16 NC=O \

