#	Name:			4w9c_ligand
#	Creating user name:	suminyi
#	Creation time:		Sun Sep 30 06:51:00 2018

#	Modifying user name:	suminyi
#	Modification time:	Sun Sep 30 06:51:00 2018

@<TRIPOS>MOLECULE
4w9c_ligand
   55    57     1     1     0
SMALL
MMFF94_CHARGES


@<TRIPOS>ATOM
      1 CAA        13.7130   52.4380   95.8320 C.3       1 MOL         0.0000 
      2 CBB        13.1210   52.4520   94.4030 C.3       1 MOL         0.0000 
      3 CAB        11.6860   51.8720   94.4650 C.3       1 MOL         0.0000 
      4 CAC        13.9920   51.5670   93.4770 C.3       1 MOL         0.0000 
      5 CAN        13.1110   53.9200   93.8890 C.3       1 MOL         0.0610 
      6 CAT        12.5620   54.0780   92.4800 C.2       1 MOL         0.5690 
      7 OAD        11.3640   54.0400   92.2790 O.2       1 MOL        -0.5700 
      8 N          13.4090   54.3350   91.4530 N.am      1 MOL        -0.6602 
      9 CD2        14.8240   54.7320   91.5330 C.3       1 MOL         0.3001 
     10 CG         15.1070   55.4740   90.2200 C.3       1 MOL         0.2800 
     11 OD1        14.5980   56.7960   90.3530 O.3       1 MOL        -0.6800 
     12 CB         14.2010   54.7750   89.2150 C.3       1 MOL         0.0000 
     13 CA         12.9490   54.4350   90.0490 C.3       1 MOL         0.3611 
     14 C          12.2380   53.2230   89.4610 C.2       1 MOL         0.5690 
     15 O          12.3430   52.0880   89.8750 O.2       1 MOL        -0.5700 
     16 NAR        11.5640   53.4910   88.3290 N.am      1 MOL        -0.7301 
     17 CAM        11.0210   52.4780   87.4200 C.3       1 MOL         0.4436 
     18 CAV        11.8810   52.2170   86.1820 C.ar      1 MOL        -0.1435 
     19 CAH        11.4800   51.2120   85.3050 C.ar      1 MOL        -0.1500 
     20 CAJ        12.2290   50.9090   84.1690 C.ar      1 MOL        -0.1500 
     21 CAG        13.0630   52.9150   85.9040 C.ar      1 MOL        -0.1500 
     22 CAI        13.8300   52.5950   84.7800 C.ar      1 MOL        -0.1500 
     23 CAW        13.4210   51.5910   83.8930 C.ar      1 MOL         0.0530 
     24 CAX        14.2300   51.2700   82.7270 C.2       1 MOL         0.0870 
     25 OAS        15.4780   51.7690   82.5210 O.3       1 MOL        -0.2800 
     26 CAK        15.7840   51.1670   81.3170 C.2       1 MOL         0.3281 
     27 NAQ        14.7970   50.4170   80.7760 N.2       1 MOL        -0.5653 
     28 CAL        13.7860   50.4600   81.7200 C.2       1 MOL         0.0772 
     29 H          13.7250   51.4240   96.2400 H         1 MOL         0.0000 
     30 H1         13.1220   53.0650   96.5030 H         1 MOL         0.0000 
     31 H2         14.7370   52.8100   95.8340 H         1 MOL         0.0000 
     32 H3         11.2610   51.7550   93.4660 H         1 MOL         0.0000 
     33 H4         11.0250   52.5260   95.0390 H         1 MOL         0.0000 
     34 H5         11.6850   50.8870   94.9370 H         1 MOL         0.0000 
     35 H6         14.9970   51.9780   93.3790 H         1 MOL         0.0000 
     36 H7         13.5580   51.4960   92.4760 H         1 MOL         0.0000 
     37 H8         14.0740   50.5540   93.8760 H         1 MOL         0.0000 
     38 H9         14.1140   54.3330   93.9710 H         1 MOL         0.0000 
     39 H10        12.4830   54.5280   94.5420 H         1 MOL         0.0000 
     40 H11        15.4550   53.8440   91.6120 H         1 MOL         0.0000 
     41 H12        15.0150   55.4000   92.3740 H         1 MOL         0.0000 
     42 H13        16.1670   55.4650   89.9450 H         1 MOL         0.0000 
     43 H14        15.0710   57.4360   89.7720 H         1 MOL         0.4000 
     44 H15        14.6850   53.8630   88.8610 H         1 MOL         0.0000 
     45 H16        13.9610   55.4070   88.3590 H         1 MOL         0.0000 
     46 H17        12.2420   55.2670   89.9890 H         1 MOL         0.0000 
     47 H18        11.5270   54.4610   88.0450 H         1 MOL         0.3700 
     48 H19        10.0280   52.8110   87.1050 H         1 MOL         0.0000 
     49 H20        10.8850   51.5410   87.9710 H         1 MOL         0.0000 
     50 H21        10.5790   50.6400   85.5210 H         1 MOL         0.1500 
     51 H22        11.8790   50.1040   83.5310 H         1 MOL         0.1500 
     52 H23        13.4100   53.6990   86.5740 H         1 MOL         0.1500 
     53 H24        14.7540   53.1440   84.5980 H         1 MOL         0.1500 
     54 H25        16.7630   51.3530   80.8970 H         1 MOL         0.1500 
     55 H26        12.8510   49.9340   81.5760 H         1 MOL         0.1500 
@<TRIPOS>BOND
     1    1    2 1    
     2    2    3 1    
     3    2    4 1    
     4    2    5 1    
     5    5    6 1    
     6    6    7 2    
     7    6    8 am   
     8    8    9 1    
     9    8   13 1    
    10    9   10 1    
    11   10   11 1    
    12   10   12 1    
    13   12   13 1    
    14   13   14 1    
    15   14   15 2    
    16   14   16 am   
    17   16   17 1    
    18   17   18 1    
    19   18   19 ar   
    20   18   21 ar   
    21   19   20 ar   
    22   20   23 ar   
    23   21   22 ar   
    24   22   23 ar   
    25   23   24 1    
    26   24   25 1    
    27   24   28 2    
    28   25   26 1    
    29   26   27 2    
    30   27   28 1    
    31    1   29 1    
    32    1   30 1    
    33    1   31 1    
    34    3   32 1    
    35    3   33 1    
    36    3   34 1    
    37    4   35 1    
    38    4   36 1    
    39    4   37 1    
    40    5   38 1    
    41    5   39 1    
    42    9   40 1    
    43    9   41 1    
    44   10   42 1    
    45   11   43 1    
    46   12   44 1    
    47   12   45 1    
    48   13   46 1    
    49   16   47 1    
    50   17   48 1    
    51   17   49 1    
    52   19   50 1    
    53   20   51 1    
    54   21   52 1    
    55   22   53 1    
    56   26   54 1    
    57   28   55 1    
@<TRIPOS>SUBSTRUCTURE
     1 MOL         1 PERM              0 ****  ****    0 ROOT 
@<TRIPOS>NORMAL
@<TRIPOS>ALT_TYPE
MMFF94_ALT_TYPE_SET 
MMFF94 1 CR 2 CR 3 CR 4 CR 5 CR 9 CR 10 CR 12 CR 13 CR 17 CR 24 C5A \
26 C5A 28 C5B 18 CB 19 CB 20 CB 21 CB 22 CB 23 CB 6 C=ON \
14 C=ON 29 HC 30 HC 31 HC 32 HC 33 HC 34 HC 35 HC 36 HC \
37 HC 38 HC 39 HC 40 HC 41 HC 42 HC 44 HC 45 HC 46 HC \
48 HC 49 HC 50 HC 51 HC 52 HC 53 HC 54 HC 55 HC 47 HNCO \
43 HOR 25 OFUR 7 O=CN 15 O=CN 11 OR 27 N5B 8 NC=O 16 NC=O \

