#	Name:			1u1b
#	Creating user name:	suminyi
#	Creation time:		Sun Sep 30 06:51:02 2018

#	Modifying user name:	suminyi
#	Modification time:	Sun Sep 30 06:51:02 2018

@<TRIPOS>MOLECULE
1u1b
   74    78     1     1     0
SMALL
MMFF94_CHARGES


@<TRIPOS>ATOM
      1 P1        -30.1570  -29.5680   17.3510 P.3       1 MOL         1.4424 
      2 O1        -31.1080  -30.6820   17.6130 O.co2     1 MOL        -0.9500 
      3 O2        -30.2150  -29.0890   15.9420 O.co2     1 MOL        -0.9500 
      4 O3        -29.7900  -28.4330   18.4200 O.3       1 MOL        -0.5512 
      5 P2        -28.2290  -30.7700   18.8610 P.3       1 MOL         1.4424 
      6 O4        -27.2510  -29.8460   19.5180 O.co2     1 MOL        -0.9500 
      7 O5        -29.2160  -31.1950   19.8870 O.co2     1 MOL        -0.9500 
      8 O6        -28.7920  -30.3290   17.4590 O.3       1 MOL        -0.5424 
      9 P3        -35.0600  -26.8510   18.1730 P.3       1 MOL         1.3712 
     10 O7        -34.7670  -26.8940   19.6230 O.co2     1 MOL        -1.0333 
     11 O8        -36.2900  -26.0970   17.8720 O.co2     1 MOL        -1.0333 
     12 O9        -35.0910  -28.2100   17.5850 O.co2     1 MOL        -1.0333 
     13 N1        -29.7250  -24.0210   16.1470 N.pl3     1 MOL         0.0476 
     14 C1        -28.8780  -24.4770   15.2160 C.ar      1 MOL         0.1054 
     15 N2        -28.7500  -25.6880   14.6370 N.ar      1 MOL        -0.5670 
     16 C2        -27.7350  -25.7840   13.7480 C.ar      1 MOL         0.4700 
     17 N3        -26.8740  -24.8170   13.3440 N.ar      1 MOL        -0.6200 
     18 C3        -27.0560  -23.6260   13.9350 C.ar      1 MOL         0.4100 
     19 N4        -26.2000  -22.6460   13.5680 N.pl3     1 MOL        -0.9000 
     20 C4        -28.0580  -23.4210   14.8800 C.ar      1 MOL         0.2272 
     21 N5        -28.3560  -22.2830   15.5340 N.2       1 MOL        -0.5653 
     22 C5        -29.4390  -22.6750   16.2790 C.2       1 MOL         0.0365 
     23 C6        -30.7650  -27.6560   19.2210 C.3       1 MOL         0.2800 
     24 C7        -31.3940  -26.4250   18.5070 C.3       1 MOL         0.2800 
     25 O10       -30.2720  -25.6810   17.9110 O.3       1 MOL        -0.5600 
     26 C8        -30.7170  -24.7120   16.9720 C.3       1 MOL         0.5356 
     27 C9        -31.9720  -25.3210   16.3800 C.3       1 MOL         0.2800 
     28 O11       -32.1170  -25.1630   15.0230 O.3       1 MOL        -0.6800 
     29 C10       -32.4130  -26.4600   17.3080 C.3       1 MOL         0.2800 
     30 O12       -33.8140  -26.0250   17.5680 O.3       1 MOL        -0.5512 
     31 O13       -25.5820  -33.6070   14.3210 O.3       1 MOL        -0.5512 
     32 C11       -26.8260  -33.8430   14.9730 C.3       1 MOL         0.2800 
     33 C12       -26.9000  -33.6570   16.5340 C.3       1 MOL         0.2800 
     34 O14       -25.8750  -34.5630   17.0350 O.3       1 MOL        -0.5600 
     35 C13       -24.8900  -33.6060   17.5680 C.3       1 MOL         0.5801 
     36 C14       -25.3680  -32.2000   17.0380 C.3       1 MOL         0.0000 
     37 C15       -26.7780  -32.2520   17.3050 C.3       1 MOL         0.2800 
     38 O15       -27.4030  -32.1460   18.5580 O.3       1 MOL        -0.5512 
     39 P4        -25.4010  -32.8330   12.9120 P.3       1 MOL         1.3712 
     40 O16       -24.3920  -33.6030   12.1550 O.co2     1 MOL        -1.0333 
     41 O17       -24.8640  -31.4830   13.2330 O.co2     1 MOL        -1.0333 
     42 O18       -26.6580  -32.7610   12.1220 O.co2     1 MOL        -1.0333 
     43 N6        -23.4430  -33.8370   17.3980 N.am      1 MOL        -0.4691 
     44 C16       -22.9100  -33.8070   16.1100 C.2       1 MOL        -0.0410 
     45 C17       -22.6520  -33.8730   18.5090 C.2       1 MOL         0.6900 
     46 O19       -23.0130  -33.7950   19.6640 O.2       1 MOL        -0.5700 
     47 N7        -21.3230  -34.0100   18.2810 N.am      1 MOL        -0.4900 
     48 C18       -20.6610  -34.0410   17.1140 C.2       1 MOL         0.6156 
     49 O20       -19.4530  -34.1810   17.0730 O.2       1 MOL        -0.5700 
     50 C19       -21.5480  -33.9120   15.9640 C.2       1 MOL        -0.1238 
     51 C20       -20.9360  -33.9680   14.5910 C.3       1 MOL         0.1382 
     52 H5        -27.5940  -26.7540   13.2890 H         1 MOL         0.1500 
     53 H6        -26.4240  -21.7020   13.8670 H         1 MOL         0.4000 
     54 H7        -25.5840  -22.8000   12.7950 H         1 MOL         0.4000 
     55 H8        -29.9770  -22.0680   16.9830 H         1 MOL         0.1500 
     56 H9        -30.4240  -26.5330   19.5770 H         1 MOL         0.0000 
     57 H10       -31.2850  -28.5760   19.8700 H         1 MOL         0.0000 
     58 H11       -31.5470  -25.8190   19.4400 H         1 MOL         0.0000 
     59 H12       -31.0810  -23.8810   17.5640 H         1 MOL         0.0000 
     60 H13       -32.7288  -24.5796   16.6760 H         1 MOL         0.0000 
     61 H14       -32.4410  -26.0690   15.6340 H         1 MOL         0.4000 
     62 H15       -32.1720  -27.3340   16.6950 H         1 MOL         0.0000 
     63 H16       -27.4270  -34.6920   14.2240 H         1 MOL         0.0000 
     64 H17       -27.0720  -32.8360   15.4440 H         1 MOL         0.0000 
     65 H18       -27.9230  -33.5380   16.3080 H         1 MOL         0.0000 
     66 H19       -25.0410  -33.7430   18.6300 H         1 MOL         0.0000 
     67 H20       -25.7620  -32.1390   15.8600 H         1 MOL         0.0000 
     68 H21       -25.0300  -31.3430   17.5970 H         1 MOL         0.0000 
     69 H22       -27.1590  -31.4360   16.6830 H         1 MOL         0.0000 
     70 H25       -23.6040  -33.7230   15.3060 H         1 MOL         0.1500 
     71 H26       -20.7410  -34.1030   19.0980 H         1 MOL         0.3700 
     72 H27       -21.6800  -33.8710   13.7980 H         1 MOL         0.0000 
     73 H28       -20.4390  -34.9250   14.4260 H         1 MOL         0.0000 
     74 H29       -20.1710  -33.2030   14.4650 H         1 MOL         0.0000 
@<TRIPOS>BOND
     1    1    2 ar   
     2    1    3 ar   
     3    1    4 1    
     4    8    1 1    
     5    4   23 1    
     6    5    6 ar   
     7    5    7 ar   
     8    5    8 1    
     9   38    5 1    
    10    9   10 ar   
    11    9   11 ar   
    12    9   12 ar   
    13   30    9 1    
    14   13   14 1    
    15   13   22 1    
    16   26   13 1    
    17   14   15 ar   
    18   14   20 ar   
    19   15   16 ar   
    20   16   17 ar   
    21   18   17 ar   
    22   18   19 1    
    23   20   18 ar   
    24   21   20 1    
    25   22   21 2    
    26   23   24 1    
    27   24   25 1    
    28   24   29 1    
    29   25   26 1    
    30   27   26 1    
    31   27   28 1    
    32   29   27 1    
    33   29   30 1    
    34   32   31 1    
    35   31   39 1    
    36   33   32 1    
    37   33   34 1    
    38   37   33 1    
    39   35   34 1    
    40   36   35 1    
    41   35   43 1    
    42   37   36 1    
    43   37   38 1    
    44   39   40 ar   
    45   39   41 ar   
    46   39   42 ar   
    47   43   44 1    
    48   43   45 am   
    49   44   50 2    
    50   45   46 2    
    51   45   47 am   
    52   47   48 am   
    53   48   49 2    
    54   48   50 1    
    55   50   51 1    
    56   16   52 1    
    57   19   53 1    
    58   19   54 1    
    59   22   55 1    
    60   23   56 1    
    61   23   57 1    
    62   24   58 1    
    63   26   59 1    
    64   27   60 1    
    65   28   61 1    
    66   29   62 1    
    67   32   63 1    
    68   32   64 1    
    69   33   65 1    
    70   35   66 1    
    71   36   67 1    
    72   36   68 1    
    73   37   69 1    
    74   44   70 1    
    75   47   71 1    
    76   51   72 1    
    77   51   73 1    
    78   51   74 1    
@<TRIPOS>SUBSTRUCTURE
     1 MOL         1 PERM              0 ****  ****    0 ROOT 
@<TRIPOS>NORMAL
@<TRIPOS>ALT_TYPE
MMFF94_ALT_TYPE_SET 
MMFF94 23 CR 24 CR 26 CR 27 CR 29 CR 32 CR 33 CR 35 CR 36 CR 37 CR 51 CR \
22 C5A 14 C5A 20 C5B 16 CB 18 CB 45 CONN 48 C=ON 44 C=C \
50 C=C 52 HC 55 HC 56 HC 57 HC 58 HC 59 HC 60 HC 62 HC \
63 HC 64 HC 65 HC 66 HC 67 HC 68 HC 69 HC 70 HC 72 HC \
73 HC 74 HC 53 HNCC 54 HNCC 71 HNCO 61 HOR 46 O=CN 49 O=CN \
10 O3P 11 O3P 12 O3P 40 O3P 41 O3P 42 O3P 2 O2P 3 O2P \
6 O2P 7 O2P 4 OPO3 8 OPO3 38 OPO3 30 OPO3 31 OPO3 25 OR \
28 OR 34 OR 15 NPYD 17 NPYD 13 NPYL 21 N5B 43 NC=O 47 NC=O \
19 NC=N 1 PO4 5 PO4 9 PO4 39 PO4 
