#	Name:			1u1b_ligand
#	Creating user name:	suminyi
#	Creation time:		Sun Sep 30 06:48:44 2018

#	Modifying user name:	suminyi
#	Modification time:	Sun Sep 30 06:48:44 2018

@<TRIPOS>MOLECULE
1u1b_ligand
   74    78     1     1     0
SMALL
MMFF94_CHARGES


@<TRIPOS>ATOM
      1 PA        -30.2210  -29.4080   17.2920 P.3       1 PAX         1.4424 
      2 O1A       -31.3890  -30.1680   17.9270 O.co2     1 PAX        -0.9500 
      3 O2A       -30.3730  -29.0440   15.8110 O.co2     1 PAX        -0.9500 
      4 O5        -29.9020  -28.0700   18.0980 O.3       1 PAX        -0.5512 
      5 PB        -28.1590  -30.8560   18.7490 P.3       1 PAX         1.4424 
      6 O1B       -27.0860  -29.9510   19.2030 O.co2     1 PAX        -0.9500 
      7 O2B       -29.2100  -31.2550   19.7120 O.co2     1 PAX        -0.9500 
      8 O3A       -28.8710  -30.2140   17.4950 O.3       1 PAX        -0.5424 
      9 PG        -34.8930  -26.7760   18.1550 P.3       1 PAX         1.3712 
     10 O1G       -34.7020  -26.9210   19.6630 O.co2     1 PAX        -1.0333 
     11 O2G       -36.1220  -25.9620   17.7740 O.co2     1 PAX        -1.0333 
     12 O3G       -34.8950  -28.1500   17.4600 O.co2     1 PAX        -1.0333 
     13 N9A       -29.7730  -23.9820   16.1300 N.pl3     1 PAX         0.0476 
     14 C4A       -28.8580  -24.4270   15.1830 C.ar      1 PAX         0.1054 
     15 N3A       -28.7370  -25.6860   14.6560 N.ar      1 PAX        -0.5670 
     16 C2A       -27.7210  -25.7640   13.7410 C.ar      1 PAX         0.4700 
     17 N1A       -26.8770  -24.7630   13.3350 N.ar      1 PAX        -0.6200 
     18 C6A       -27.0260  -23.5070   13.8830 C.ar      1 PAX         0.4100 
     19 N6A       -26.2020  -22.5460   13.4760 N.pl3     1 PAX        -0.9000 
     20 C5A       -28.0660  -23.3020   14.8620 C.ar      1 PAX         0.2272 
     21 N7A       -28.4730  -22.1930   15.5880 N.2       1 PAX        -0.5653 
     22 C8A       -29.4760  -22.6410   16.3160 C.2       1 PAX         0.0365 
     23 C5        -30.8270  -27.5380   19.0200 C.3       1 PAX         0.2800 
     24 C4        -31.4240  -26.2850   18.4610 C.3       1 PAX         0.2800 
     25 O4        -30.3690  -25.3940   17.9690 O.3       1 PAX        -0.5600 
     26 C1        -30.8710  -24.6990   16.8490 C.3       1 PAX         0.5356 
     27 C2        -31.6670  -25.7980   16.1180 C.3       1 PAX         0.2800 
     28 O2        -32.5430  -25.2970   15.1170 O.3       1 PAX        -0.6800 
     29 C3        -32.3640  -26.5250   17.2780 C.3       1 PAX         0.2800 
     30 O3        -33.6160  -25.9150   17.6040 O.3       1 PAX        -0.5512 
     31 O5        -25.7810  -33.8130   14.1660 O.3       1 PAX        -0.5512 
     32 C5        -27.0380  -33.6820   14.8750 C.3       1 PAX         0.2800 
     33 C4        -26.8140  -33.6990   16.3790 C.3       1 PAX         0.2800 
     34 O4        -25.5540  -34.3540   16.6930 O.3       1 PAX        -0.5600 
     35 C1        -24.8450  -33.5810   17.6400 C.3       1 PAX         0.5801 
     36 C2        -25.2930  -32.1420   17.4180 C.3       1 PAX         0.0000 
     37 C3        -26.7470  -32.3010   17.0050 C.3       1 PAX         0.2800 
     38 O3        -27.5880  -32.2610   18.1600 O.3       1 PAX        -0.5512 
     39 PD        -25.4210  -32.9050   12.8410 P.3       1 PAX         1.3712 
     40 O1D       -24.3250  -33.6930   12.0980 O.co2     1 PAX        -1.0333 
     41 O2D       -24.9230  -31.5400   13.3680 O.co2     1 PAX        -1.0333 
     42 O3D       -26.7240  -32.7970   12.0290 O.co2     1 PAX        -1.0333 
     43 N1T       -23.3680  -33.7610   17.4380 N.am      1 PAX        -0.4691 
     44 C6T       -22.7850  -33.7800   16.1450 C.2       1 PAX        -0.0410 
     45 C2T       -22.5700  -33.9130   18.5980 C.2       1 PAX         0.6900 
     46 O2T       -23.0220  -33.9050   19.7200 O.2       1 PAX        -0.5700 
     47 N3T       -21.2080  -34.0720   18.3510 N.am      1 PAX        -0.4900 
     48 C4T       -20.5700  -34.0950   17.0950 C.2       1 PAX         0.6156 
     49 O4T       -19.3450  -34.2320   17.0580 O.2       1 PAX        -0.5700 
     50 C5T       -21.4570  -33.9380   15.9370 C.2       1 PAX        -0.1238 
     51 CM5       -20.9140  -33.9420   14.5430 C.3       1 PAX         0.1382 
     52 H1        -27.5655  -26.7340   13.2827 H         1 PAX         0.1500 
     53 H2        -26.2863  -21.5962   13.8654 H         1 PAX         0.4000 
     54 H3        -25.4794  -22.7514   12.7713 H         1 PAX         0.4000 
     55 H4        -30.0279  -22.0076   17.0090 H         1 PAX         0.1500 
     56 H5        -30.3125  -27.3091   19.9649 H         1 PAX         0.0000 
     57 H6        -31.6242  -28.2730   19.2052 H         1 PAX         0.0000 
     58 H7        -31.9839  -25.7851   19.2651 H         1 PAX         0.0000 
     59 H8        -31.5818  -23.9265   17.1777 H         1 PAX         0.0000 
     60 H9        -30.9698  -26.4893   15.6220 H         1 PAX         0.0000 
     61 H10       -33.1727  -24.7074   15.5150 H         1 PAX         0.4000 
     62 H11       -32.4978  -27.5948   17.0598 H         1 PAX         0.0000 
     63 H12       -27.6966  -34.5187   14.5991 H         1 PAX         0.0000 
     64 H13       -27.5143  -32.7317   14.5921 H         1 PAX         0.0000 
     65 H14       -27.6424  -34.2555   16.8416 H         1 PAX         0.0000 
     66 H15       -25.1059  -33.8967   18.6609 H         1 PAX         0.0000 
     67 H16       -24.7052  -31.6626   16.6214 H         1 PAX         0.0000 
     68 H17       -25.2062  -31.5530   18.3429 H         1 PAX         0.0000 
     69 H18       -27.0463  -31.5235   16.2867 H         1 PAX         0.0000 
     70 H19       -23.4359  -33.6620   15.2799 H         1 PAX         0.1500 
     71 H20       -20.6195  -34.1817   19.1520 H         1 PAX         0.3700 
     72 H21       -21.7394  -33.8118   13.8276 H         1 PAX         0.0000 
     73 H22       -20.4085  -34.8995   14.3491 H         1 PAX         0.0000 
     74 H23       -20.1950  -33.1176   14.4272 H         1 PAX         0.0000 
@<TRIPOS>BOND
     1    1    2 ar   
     2    1    3 ar   
     3    1    4 1    
     4    8    1 1    
     5    4   23 1    
     6    5    6 ar   
     7    5    7 ar   
     8    5    8 1    
     9   38    5 1    
    10    9   10 ar   
    11    9   11 ar   
    12    9   12 ar   
    13   30    9 1    
    14   13   14 1    
    15   13   22 1    
    16   26   13 1    
    17   14   15 ar   
    18   14   20 ar   
    19   15   16 ar   
    20   16   17 ar   
    21   18   17 ar   
    22   18   19 1    
    23   20   18 ar   
    24   21   20 1    
    25   22   21 2    
    26   23   24 1    
    27   24   25 1    
    28   24   29 1    
    29   25   26 1    
    30   27   26 1    
    31   27   28 1    
    32   29   27 1    
    33   29   30 1    
    34   32   31 1    
    35   31   39 1    
    36   33   32 1    
    37   33   34 1    
    38   37   33 1    
    39   35   34 1    
    40   36   35 1    
    41   35   43 1    
    42   37   36 1    
    43   37   38 1    
    44   39   40 ar   
    45   39   41 ar   
    46   39   42 ar   
    47   43   44 1    
    48   43   45 am   
    49   44   50 2    
    50   45   46 2    
    51   45   47 am   
    52   47   48 am   
    53   48   49 2    
    54   48   50 1    
    55   50   51 1    
    56   16   52 1    
    57   19   53 1    
    58   19   54 1    
    59   22   55 1    
    60   23   56 1    
    61   23   57 1    
    62   24   58 1    
    63   26   59 1    
    64   27   60 1    
    65   28   61 1    
    66   29   62 1    
    67   32   63 1    
    68   32   64 1    
    69   33   65 1    
    70   35   66 1    
    71   36   67 1    
    72   36   68 1    
    73   37   69 1    
    74   44   70 1    
    75   47   71 1    
    76   51   72 1    
    77   51   73 1    
    78   51   74 1    
@<TRIPOS>SUBSTRUCTURE
     1 PAX         1 PERM              0 ****  ****    0 ROOT 
@<TRIPOS>NORMAL
@<TRIPOS>ALT_TYPE
MMFF94_ALT_TYPE_SET 
MMFF94 23 CR 24 CR 26 CR 27 CR 29 CR 32 CR 33 CR 35 CR 36 CR 37 CR 51 CR \
22 C5A 14 C5A 20 C5B 16 CB 18 CB 45 CONN 48 C=ON 44 C=C \
50 C=C 52 HC 55 HC 56 HC 57 HC 58 HC 59 HC 60 HC 62 HC \
63 HC 64 HC 65 HC 66 HC 67 HC 68 HC 69 HC 70 HC 72 HC \
73 HC 74 HC 53 HNCC 54 HNCC 71 HNCO 61 HOR 46 O=CN 49 O=CN \
10 O3P 11 O3P 12 O3P 40 O3P 41 O3P 42 O3P 2 O2P 3 O2P \
6 O2P 7 O2P 4 OPO3 8 OPO3 38 OPO3 30 OPO3 31 OPO3 25 OR \
28 OR 34 OR 15 NPYD 17 NPYD 13 NPYL 21 N5B 43 NC=O 47 NC=O \
19 NC=N 1 PO4 5 PO4 9 PO4 39 PO4 
