#	Name:			4w9h_ligand
#	Creating user name:	suminyi
#	Creation time:		Sun Sep 30 06:51:00 2018

#	Modifying user name:	suminyi
#	Modification time:	Sun Sep 30 06:51:00 2018

@<TRIPOS>MOLECULE
4w9h_ligand
   65    67     1     1     0
SMALL
MMFF94_CHARGES


@<TRIPOS>ATOM
      1 CAA         9.6890   56.1650   95.1900 C.3       1 MOL         0.0610 
      2 CAV        10.9640   55.5910   94.6450 C.2       1 MOL         0.5690 
      3 OAF        12.0220   56.1660   94.7600 O.2       1 MOL        -0.5700 
      4 NAT        10.8610   54.4040   94.0340 N.am      1 MOL        -0.7301 
      5 CBE        11.9650   53.7240   93.3050 C.3       1 MOL         0.3611 
      6 CBG        12.2340   52.2880   93.8700 C.3       1 MOL         0.0000 
      7 CAD        12.6560   52.3890   95.3590 C.3       1 MOL         0.0000 
      8 CAE        13.3850   51.5960   93.0980 C.3       1 MOL         0.0000 
      9 CAC        10.9730   51.3910   93.7610 C.3       1 MOL         0.0000 
     10 CAX        11.6460   53.7170   91.8060 C.2       1 MOL         0.5690 
     11 OAH        10.4930   53.5750   91.4320 O.2       1 MOL        -0.5700 
     12 N          12.6230   53.9540   90.8940 N.am      1 MOL        -0.6602 
     13 CD2        14.0120   54.3890   91.1300 C.3       1 MOL         0.3001 
     14 CG         14.4340   55.1150   89.8430 C.3       1 MOL         0.2800 
     15 OD1        13.9220   56.4380   89.9040 O.3       1 MOL        -0.6800 
     16 CB         13.6480   54.4030   88.7490 C.3       1 MOL         0.0000 
     17 CA         12.3310   54.0220   89.4490 C.3       1 MOL         0.3611 
     18 C          11.7230   52.7830   88.8100 C.2       1 MOL         0.5690 
     19 O          11.8700   51.6470   89.2110 O.2       1 MOL        -0.5700 
     20 NAS        11.0900   53.0360   87.6580 N.am      1 MOL        -0.7301 
     21 CAO        10.5980   52.0070   86.7440 C.3       1 MOL         0.4436 
     22 CAY        11.5420   51.7270   85.5820 C.ar      1 MOL        -0.1435 
     23 CAK        12.5390   52.6210   85.1770 C.ar      1 MOL        -0.1500 
     24 CAM        13.3370   52.3320   84.0680 C.ar      1 MOL        -0.1500 
     25 CAJ        11.4000   50.5250   84.8940 C.ar      1 MOL        -0.1500 
     26 CAL        12.1760   50.2530   83.7720 C.ar      1 MOL        -0.1500 
     27 CBA        13.1170   51.1770   83.3080 C.ar      1 MOL         0.0530 
     28 CBB        13.8850   50.9600   82.0930 C.2       1 MOL        -0.0130 
     29 SAU        15.4720   51.5880   81.8170 S.3       1 MOL        -0.0800 
     30 CAN        15.4160   50.8660   80.2400 C.2       1 MOL         0.2281 
     31 NAR        14.2370   50.3290   79.8830 N.2       1 MOL        -0.5653 
     32 CAZ        13.3680   50.3680   80.9550 C.2       1 MOL         0.0462 
     33 CAB        11.9510   49.9070   80.7580 C.3       1 MOL         0.1810 
     34 H           8.8170   55.6910   94.7370 H         1 MOL         0.0000 
     35 H1          9.6570   57.2330   94.9720 H         1 MOL         0.0000 
     36 H2          9.6530   56.0200   96.2700 H         1 MOL         0.0000 
     37 H3          9.9420   54.0160   93.8940 H         1 MOL         0.3700 
     38 H4         12.8740   54.3100   93.4340 H         1 MOL         0.0000 
     39 H5         12.8950   51.4020   95.7620 H         1 MOL         0.0000 
     40 H6         11.8570   52.8130   95.9710 H         1 MOL         0.0000 
     41 H7         13.5390   53.0220   95.4670 H         1 MOL         0.0000 
     42 H8         13.1240   51.4320   92.0490 H         1 MOL         0.0000 
     43 H9         13.6160   50.6200   93.5340 H         1 MOL         0.0000 
     44 H10        14.2910   52.2000   93.1360 H         1 MOL         0.0000 
     45 H11        10.1240   51.8240   94.2930 H         1 MOL         0.0000 
     46 H12        11.1640   50.4020   94.1850 H         1 MOL         0.0000 
     47 H13        10.6820   51.2490   92.7170 H         1 MOL         0.0000 
     48 H14        14.6560   53.5200   91.2840 H         1 MOL         0.0000 
     49 H15        14.1000   55.0710   91.9770 H         1 MOL         0.0000 
     50 H16        15.5170   55.1040   89.6870 H         1 MOL         0.0000 
     51 H17        14.4180   57.0520   89.3130 H         1 MOL         0.4000 
     52 H18        14.1900   53.5120   88.4300 H         1 MOL         0.0000 
     53 H19        13.4670   55.0340   87.8770 H         1 MOL         0.0000 
     54 H20        11.6080   54.8300   89.3040 H         1 MOL         0.0000 
     55 H21        11.0200   54.0080   87.3860 H         1 MOL         0.3700 
     56 H22         9.6310   52.3370   86.3540 H         1 MOL         0.0000 
     57 H23        10.4210   51.0840   87.3080 H         1 MOL         0.0000 
     58 H24        12.6990   53.5530   85.7140 H         1 MOL         0.1500 
     59 H25        14.0940   53.0540   83.7690 H         1 MOL         0.1500 
     60 H26        10.6710   49.7920   85.2350 H         1 MOL         0.1500 
     61 H27        12.0520   49.2890   83.2910 H         1 MOL         0.1500 
     62 H28        16.2740   50.9240   79.5870 H         1 MOL         0.1500 
     63 H29        11.7010   49.8870   79.6970 H         1 MOL         0.0000 
     64 H30        11.2410   50.5790   81.2440 H         1 MOL         0.0000 
     65 H31        11.8110   48.8960   81.1430 H         1 MOL         0.0000 
@<TRIPOS>BOND
     1    1    2 1    
     2    2    3 2    
     3    2    4 am   
     4    4    5 1    
     5    5    6 1    
     6    5   10 1    
     7    6    7 1    
     8    6    8 1    
     9    6    9 1    
    10   10   11 2    
    11   10   12 am   
    12   12   13 1    
    13   12   17 1    
    14   13   14 1    
    15   14   15 1    
    16   14   16 1    
    17   16   17 1    
    18   17   18 1    
    19   18   19 2    
    20   18   20 am   
    21   20   21 1    
    22   21   22 1    
    23   22   23 ar   
    24   22   25 ar   
    25   23   24 ar   
    26   24   27 ar   
    27   25   26 ar   
    28   26   27 ar   
    29   27   28 1    
    30   28   29 1    
    31   28   32 2    
    32   29   30 1    
    33   30   31 2    
    34   31   32 1    
    35   32   33 1    
    36    1   34 1    
    37    1   35 1    
    38    1   36 1    
    39    4   37 1    
    40    5   38 1    
    41    7   39 1    
    42    7   40 1    
    43    7   41 1    
    44    8   42 1    
    45    8   43 1    
    46    8   44 1    
    47    9   45 1    
    48    9   46 1    
    49    9   47 1    
    50   13   48 1    
    51   13   49 1    
    52   14   50 1    
    53   15   51 1    
    54   16   52 1    
    55   16   53 1    
    56   17   54 1    
    57   20   55 1    
    58   21   56 1    
    59   21   57 1    
    60   23   58 1    
    61   24   59 1    
    62   25   60 1    
    63   26   61 1    
    64   30   62 1    
    65   33   63 1    
    66   33   64 1    
    67   33   65 1    
@<TRIPOS>SUBSTRUCTURE
     1 MOL         1 PERM              0 ****  ****    0 ROOT 
@<TRIPOS>NORMAL
@<TRIPOS>ALT_TYPE
MMFF94_ALT_TYPE_SET 
MMFF94 1 CR 5 CR 6 CR 7 CR 8 CR 9 CR 13 CR 14 CR 16 CR 17 CR 21 CR 33 CR \
28 C5A 30 C5A 32 C5B 22 CB 23 CB 24 CB 25 CB 26 CB 27 CB \
2 C=ON 10 C=ON 18 C=ON 34 HC 35 HC 36 HC 38 HC 39 HC \
40 HC 41 HC 42 HC 43 HC 44 HC 45 HC 46 HC 47 HC 48 HC \
49 HC 50 HC 52 HC 53 HC 54 HC 56 HC 57 HC 58 HC 59 HC \
60 HC 61 HC 62 HC 63 HC 64 HC 65 HC 37 HNCO 55 HNCO 51 HOR \
3 O=CN 11 O=CN 19 O=CN 15 OR 31 N5B 4 NC=O 12 NC=O 20 NC=O \
29 STHI 
