#	Name:			3b5r_ligand
#	Creating user name:	suminyi
#	Creation time:		Sun Sep 30 06:51:11 2018

#	Modifying user name:	suminyi
#	Modification time:	Sun Sep 30 06:51:11 2018

@<TRIPOS>MOLECULE
3b5r_ligand
   41    42     1     1     0
SMALL
MMFF94_CHARGES


@<TRIPOS>ATOM
      1 C21        29.5120   -0.5760    8.1340 C.ar      1 MOL        -0.1500 
      2 C20        29.5000   -0.6810    9.5090 C.ar      1 MOL         0.1900 
      3 F20        29.5560   -1.9040   10.0310 F         1 MOL        -0.1900 
      4 C19        29.3190    0.4510   10.2960 C.ar      1 MOL         0.1770 
      5 Cl19       29.1710    0.3190   12.0160 Cl        1 MOL        -0.1770 
      6 C18        29.2010    1.6920    9.6740 C.ar      1 MOL        -0.1500 
      7 C17        29.3130    1.8030    8.2890 C.ar      1 MOL        -0.1500 
      8 C16        29.4480    0.6590    7.5190 C.ar      1 MOL         0.0825 
      9 O14        29.2720    0.7060    6.1640 O.3       1 MOL        -0.3625 
     10 C13        30.3830    0.7070    5.2500 C.3       1 MOL         0.2800 
     11 C11        29.8600    0.6320    3.7950 C.3       1 MOL         0.3410 
     12 O11        30.8620    1.2670    2.9820 O.3       1 MOL        -0.6800 
     13 C12        29.7610   -0.8260    3.2950 C.3       1 MOL         0.0000 
     14 C10        28.4900    1.3530    3.6810 C.2       1 MOL         0.5690 
     15 O10        27.4270    0.7610    3.7080 O.2       1 MOL        -0.5700 
     16 N9         28.5510    2.7000    3.5870 N.am      1 MOL        -0.5470 
     17 C6         27.5310    3.7080    3.5930 C.ar      1 MOL         0.1170 
     18 C5         26.1680    3.4550    3.7860 C.ar      1 MOL        -0.1500 
     19 C1         27.9510    5.0240    3.4460 C.ar      1 MOL        -0.1500 
     20 C2         27.0400    6.0710    3.5150 C.ar      1 MOL        -0.1500 
     21 C3         25.6840    5.8250    3.7020 C.ar      1 MOL         0.0730 
     22 C8         24.8340    6.9890    3.8110 C.1       1 MOL         0.4841 
     23 N8         24.2000    7.9330    3.9280 N.1       1 MOL        -0.5571 
     24 C4         25.2230    4.4980    3.8190 C.ar      1 MOL        -0.1435 
     25 C7         23.7390    4.1550    4.0380 C.3       1 MOL         1.1635 
     26 F2         22.8990    4.8820    3.2800 F         1 MOL        -0.3400 
     27 F1         23.4480    2.8740    3.7590 F         1 MOL        -0.3400 
     28 F3         23.3830    4.3580    5.3130 F         1 MOL        -0.3400 
     29 H1         29.4860   -1.4710    7.5520 H         1 MOL         0.1500 
     30 H2         28.9870    2.5700   10.2600 H         1 MOL         0.1500 
     31 H3         29.2430    2.7660    7.8050 H         1 MOL         0.1500 
     32 H4         31.0530   -0.1300    5.4650 H         1 MOL         0.0000 
     33 H5         30.9260    1.6440    5.3900 H         1 MOL         0.0000 
     34 H6         31.7460    0.7800    3.0120 H         1 MOL         0.4000 
     35 H7         29.4880   -0.8440    2.2380 H         1 MOL         0.0000 
     36 H8         28.9900   -1.3700    3.8430 H         1 MOL         0.0000 
     37 H9         30.7110   -1.3530    3.4110 H         1 MOL         0.0000 
     38 H10        29.4910    3.0520    3.4780 H         1 MOL         0.3700 
     39 H11        25.8280    2.4320    3.9290 H         1 MOL         0.1500 
     40 H12        29.0010    5.2480    3.2960 H         1 MOL         0.1500 
     41 H13        27.3930    7.0970    3.4410 H         1 MOL         0.1500 
@<TRIPOS>BOND
     1    1    2 ar   
     2    1    8 ar   
     3    2    3 1    
     4    2    4 ar   
     5    4    5 1    
     6    4    6 ar   
     7    6    7 ar   
     8    7    8 ar   
     9    8    9 1    
    10    9   10 1    
    11   10   11 1    
    12   11   12 1    
    13   11   13 1    
    14   11   14 1    
    15   14   15 2    
    16   14   16 am   
    17   16   17 1    
    18   17   18 ar   
    19   17   19 ar   
    20   18   24 ar   
    21   19   20 ar   
    22   20   21 ar   
    23   21   22 1    
    24   21   24 ar   
    25   22   23 3    
    26   24   25 1    
    27   25   26 1    
    28   25   27 1    
    29   25   28 1    
    30    1   29 1    
    31    6   30 1    
    32    7   31 1    
    33   10   32 1    
    34   10   33 1    
    35   12   34 1    
    36   13   35 1    
    37   13   36 1    
    38   13   37 1    
    39   16   38 1    
    40   18   39 1    
    41   19   40 1    
    42   20   41 1    
@<TRIPOS>SUBSTRUCTURE
     1 MOL         1 PERM              0 ****  ****    0 ROOT 
@<TRIPOS>NORMAL
@<TRIPOS>ALT_TYPE
MMFF94_ALT_TYPE_SET 
MMFF94 10 CR 11 CR 13 CR 25 CR 1 CB 2 CB 4 CB 6 CB 7 CB 8 CB 17 CB 18 CB \
19 CB 20 CB 21 CB 24 CB 14 C=ON 22 CSP 29 HC 30 HC 31 HC \
32 HC 33 HC 35 HC 36 HC 37 HC 39 HC 40 HC 41 HC 38 HNCC \
34 HOR 15 O=CN 9 OC=C 12 OR 23 NSP 16 NC=O 3 F 26 F \
27 F 28 F 5 CL 
