#	Name:			3r88_ligand
#	Creating user name:	suminyi
#	Creation time:		Sun Sep 30 06:51:16 2018

#	Modifying user name:	suminyi
#	Modification time:	Sun Sep 30 06:51:16 2018

@<TRIPOS>MOLECULE
3r88_ligand
   24    24     1     1     0
SMALL
MMFF94_CHARGES


@<TRIPOS>ATOM
      1 CAA        -8.1010  -29.5010    5.7280 C.3       1 MOL         0.2800 
      2 CAB        -4.8970  -32.3850    9.2900 C.3       1 MOL         0.2800 
      3 NAC        -3.3150  -28.3740    4.4760 N.pl3     1 MOL        -0.9000 
      4 OAD        -1.0150  -29.7350    7.6790 O.co2     1 MOL        -0.9000 
      5 OAE        -0.9750  -28.6740    5.8350 O.co2     1 MOL        -0.9000 
      6 CAF        -5.2020  -29.3940    5.4240 C.ar      1 MOL        -0.1500 
      7 CAG        -3.6460  -30.5170    7.4230 C.ar      1 MOL        -0.1500 
      8 OAH        -7.1850  -30.3590    6.4480 O.3       1 MOL        -0.3625 
      9 OAI        -5.6290  -31.4850    8.4220 O.3       1 MOL        -0.3625 
     10 CAJ        -1.5590  -29.3630    6.6480 C.2       1 MOL         0.9790 
     11 CAK        -3.8310  -29.1580    5.4520 C.ar      1 MOL         0.1000 
     12 CAL        -5.8130  -30.1610    6.4200 C.ar      1 MOL         0.0825 
     13 CAM        -5.0250  -30.7370    7.4210 C.ar      1 MOL         0.0825 
     14 CAN        -3.0310  -29.6860    6.4760 C.ar      1 MOL        -0.1790 
     15 H1         -9.1240  -29.7610    6.0100 H         1 MOL         0.0000 
     16 H2         -7.9680  -29.6540    4.6560 H         1 MOL         0.0000 
     17 H3         -7.9150  -28.4570    5.9780 H         1 MOL         0.0000 
     18 H4         -5.6090  -32.9300    9.9160 H         1 MOL         0.0000 
     19 H5         -4.2200  -31.8100    9.9270 H         1 MOL         0.0000 
     20 H6         -4.3310  -33.0960    8.6810 H         1 MOL         0.0000 
     21 H7         -3.9100  -27.8870    3.8130 H         1 MOL         0.4000 
     22 H8         -2.3050  -28.1860    4.5340 H         1 MOL         0.4000 
     23 H9         -5.7900  -28.9530    4.6260 H         1 MOL         0.1500 
     24 H10        -3.0310  -30.9670    8.1920 H         1 MOL         0.1500 
@<TRIPOS>BOND
     1    8    1 1    
     2    9    2 1    
     3   11    3 1    
     4   10    4 ar   
     5   10    5 ar   
     6   11    6 ar   
     7    6   12 ar   
     8    7   13 ar   
     9   14    7 ar   
    10   12    8 1    
    11   13    9 1    
    12   14   10 1    
    13   11   14 ar   
    14   12   13 ar   
    15    1   15 1    
    16    1   16 1    
    17    1   17 1    
    18    2   18 1    
    19    2   19 1    
    20    2   20 1    
    21    3   21 1    
    22    3   22 1    
    23    6   23 1    
    24    7   24 1    
@<TRIPOS>SUBSTRUCTURE
     1 MOL         1 PERM              0 ****  ****    0 ROOT 
@<TRIPOS>NORMAL
@<TRIPOS>ALT_TYPE
MMFF94_ALT_TYPE_SET 
MMFF94 1 CR 2 CR 6 CB 7 CB 11 CB 12 CB 13 CB 14 CB 10 CO2M 15 HC 16 HC \
17 HC 18 HC 19 HC 20 HC 23 HC 24 HC 21 HNCC 22 HNCC 4 O2CM \
5 O2CM 8 OC=C 9 OC=C 3 NC=C 
