#	Name:			3bgz_ligand
#	Creating user name:	suminyi
#	Creation time:		Sun Sep 30 06:49:00 2018

#	Modifying user name:	suminyi
#	Modification time:	Sun Sep 30 06:49:00 2018

@<TRIPOS>MOLECULE
3bgz_ligand
   38    41     1     1     0
SMALL
MMFF94_CHARGES


@<TRIPOS>ATOM
      1 O2        -16.3530   34.6390    1.3060 O.co2     1 VX3        -0.9000 
      2 C16       -19.4690   37.5860   -1.0230 C.2       1 VX3        -0.0540 
      3 C19       -22.3520   39.8790   -1.9770 C.ar      1 VX3        -0.1500 
      4 C3        -16.6360   35.5370    2.2610 C.2       1 VX3         0.9790 
      5 O4        -15.9970   35.5420    3.3100 O.co2     1 VX3        -0.9000 
      6 C5        -17.6710   36.5480    1.9860 C.ar      1 VX3        -0.1790 
      7 C6        -18.1840   36.6870    0.6720 C.ar      1 VX3        -0.1516 
      8 N7        -17.9570   36.0140   -0.5040 N.pl3     1 VX3         0.0332 
      9 C9        -18.7050   36.5490   -1.5230 C.2       1 VX3        -0.2046 
     10 C10       -18.6940   36.0300   -2.9150 C.ar      1 VX3         0.0530 
     11 C11       -19.8780   36.0240   -3.6840 C.ar      1 VX3        -0.1500 
     12 C12       -19.8540   35.5270   -4.9790 C.ar      1 VX3        -0.1500 
     13 C13       -18.6690   35.0290   -5.5120 C.ar      1 VX3        -0.1500 
     14 C14       -17.5040   35.0110   -4.7480 C.ar      1 VX3        -0.1500 
     15 C15       -17.5090   35.5010   -3.4590 C.ar      1 VX3        -0.1500 
     16 C17       -20.3690   38.5260   -1.7500 C.ar      1 VX3         0.0540 
     17 C18       -21.6090   38.9520   -1.2530 C.ar      1 VX3        -0.1500 
     18 C20       -21.8720   40.4050   -3.1770 C.ar      1 VX3        -0.1500 
     19 C21       -20.6330   40.0140   -3.6680 C.ar      1 VX3        -0.1500 
     20 C22       -19.8850   39.0960   -2.9540 C.ar      1 VX3        -0.1500 
     21 C23       -19.1250   37.6950    0.4060 C.ar      1 VX3         0.0000 
     22 C24       -19.5470   38.5420    1.4370 C.ar      1 VX3        -0.1500 
     23 C25       -19.0540   38.4060    2.7160 C.ar      1 VX3        -0.1500 
     24 C26       -18.1020   37.4260    2.9930 C.ar      1 VX3        -0.1500 
     25 H1        -23.3184   40.1975   -1.6032 H         1 VX3         0.1500 
     26 H2        -17.3132   35.2166   -0.6070 H         1 VX3         0.2700 
     27 H3        -20.8016   36.4060   -3.2645 H         1 VX3         0.1500 
     28 H4        -20.7588   35.5266   -5.5760 H         1 VX3         0.1500 
     29 H5        -18.6522   34.6525   -6.5284 H         1 VX3         0.1500 
     30 H6        -16.5892   34.6098   -5.1689 H         1 VX3         0.1500 
     31 H7        -16.6018   35.4787   -2.8660 H         1 VX3         0.1500 
     32 H8        -21.9851   38.5628   -0.3138 H         1 VX3         0.1500 
     33 H9        -22.4690   41.1222   -3.7286 H         1 VX3         0.1500 
     34 H10       -20.2573   40.4232   -4.5988 H         1 VX3         0.1500 
     35 H11       -18.9078   38.8062   -3.3229 H         1 VX3         0.1500 
     36 H12       -20.2739   39.3179    1.2256 H         1 VX3         0.1500 
     37 H13       -19.4057   39.0599    3.5058 H         1 VX3         0.1500 
     38 H14       -17.6918   37.3414    3.9928 H         1 VX3         0.1500 
@<TRIPOS>BOND
     1    4    1 ar   
     2    2    9 2    
     3   16    2 1    
     4    2   21 1    
     5   17    3 ar   
     6    3   18 ar   
     7    4    5 ar   
     8    6    4 1    
     9    7    6 ar   
    10    6   24 ar   
    11    7    8 1    
    12   21    7 ar   
    13    9    8 1    
    14    9   10 1    
    15   10   11 ar   
    16   10   15 ar   
    17   11   12 ar   
    18   12   13 ar   
    19   14   13 ar   
    20   15   14 ar   
    21   16   17 ar   
    22   16   20 ar   
    23   18   19 ar   
    24   19   20 ar   
    25   21   22 ar   
    26   22   23 ar   
    27   23   24 ar   
    28    3   25 1    
    29    8   26 1    
    30   11   27 1    
    31   12   28 1    
    32   13   29 1    
    33   14   30 1    
    34   15   31 1    
    35   17   32 1    
    36   18   33 1    
    37   19   34 1    
    38   20   35 1    
    39   22   36 1    
    40   23   37 1    
    41   24   38 1    
@<TRIPOS>SUBSTRUCTURE
     1 VX3         1 PERM              0 ****  ****    0 ROOT 
@<TRIPOS>NORMAL
@<TRIPOS>ALT_TYPE
MMFF94_ALT_TYPE_SET 
MMFF94 9 C5A 7 C5A 2 C5B 21 C5B 3 CB 6 CB 10 CB 11 CB 12 CB 13 CB 14 CB \
15 CB 16 CB 17 CB 18 CB 19 CB 20 CB 22 CB 23 CB 24 CB \
4 CO2M 25 HC 27 HC 28 HC 29 HC 30 HC 31 HC 32 HC 33 HC \
34 HC 35 HC 36 HC 37 HC 38 HC 26 HPYL 1 O2CM 5 O2CM 8 NPYL \

