#	Name:			3bgz_ligand
#	Creating user name:	suminyi
#	Creation time:		Sun Sep 30 06:50:59 2018

#	Modifying user name:	suminyi
#	Modification time:	Sun Sep 30 06:50:59 2018

@<TRIPOS>MOLECULE
3bgz_ligand
   38    41     1     1     0
SMALL
MMFF94_CHARGES


@<TRIPOS>ATOM
      1 O2        -16.3710   34.7830    1.6640 O.co2     1 MOL        -0.9000 
      2 C16       -19.5430   37.5270   -0.9390 C.2       1 MOL        -0.0540 
      3 C19       -22.2220   39.9520   -1.9560 C.ar      1 MOL        -0.1500 
      4 C3        -16.6280   35.7070    2.4150 C.2       1 MOL         0.9790 
      5 O4        -16.0390   35.8560    3.4710 O.co2     1 MOL        -0.9000 
      6 C5        -17.7140   36.6780    2.0370 C.ar      1 MOL        -0.1790 
      7 C6        -18.3120   36.7270    0.7730 C.ar      1 MOL        -0.1516 
      8 N7        -17.9370   36.0520   -0.3330 N.pl3     1 MOL         0.0332 
      9 C9        -18.7000   36.5150   -1.4060 C.2       1 MOL        -0.2046 
     10 C10       -18.6810   36.0090   -2.7690 C.ar      1 MOL         0.0530 
     11 C11       -19.8050   36.0490   -3.6060 C.ar      1 MOL        -0.1500 
     12 C12       -19.7350   35.5950   -4.9220 C.ar      1 MOL        -0.1500 
     13 C13       -18.5430   35.0770   -5.4160 C.ar      1 MOL        -0.1500 
     14 C14       -17.4310   34.9960   -4.5830 C.ar      1 MOL        -0.1500 
     15 C15       -17.5060   35.4360   -3.2630 C.ar      1 MOL        -0.1500 
     16 C17       -20.3020   38.4820   -1.7300 C.ar      1 MOL         0.0540 
     17 C18       -21.5030   38.9990   -1.2360 C.ar      1 MOL        -0.1500 
     18 C20       -21.7500   40.3950   -3.1890 C.ar      1 MOL        -0.1500 
     19 C21       -20.5460   39.9030   -3.6840 C.ar      1 MOL        -0.1500 
     20 C22       -19.8240   38.9590   -2.9560 C.ar      1 MOL        -0.1500 
     21 C23       -19.2770   37.6450    0.4580 C.ar      1 MOL         0.0000 
     22 C24       -19.7080   38.5860    1.3870 C.ar      1 MOL        -0.1500 
     23 C25       -19.1440   38.5480    2.6590 C.ar      1 MOL        -0.1500 
     24 C26       -18.1510   37.6180    2.9740 C.ar      1 MOL        -0.1500 
     25 H1        -23.1550   40.3440   -1.5630 H         1 MOL         0.1500 
     26 H2        -17.2060   35.3480   -0.3490 H         1 MOL         0.2700 
     27 H3        -20.7430   36.4560   -3.2460 H         1 MOL         0.1500 
     28 H4        -20.5960   35.6860   -5.5790 H         1 MOL         0.1500 
     29 H5        -18.4680   34.7710   -6.4570 H         1 MOL         0.1500 
     30 H6        -16.4850   34.6280   -4.9760 H         1 MOL         0.1500 
     31 H7        -16.6080   35.4020   -2.6480 H         1 MOL         0.1500 
     32 H8        -21.8950   38.6270   -0.2950 H         1 MOL         0.1500 
     33 H9        -22.3050   41.1340   -3.7640 H         1 MOL         0.1500 
     34 H10       -20.1570   40.2560   -4.6390 H         1 MOL         0.1500 
     35 H11       -18.8680   38.6140   -3.3490 H         1 MOL         0.1500 
     36 H12       -20.4140   39.3680    1.1330 H         1 MOL         0.1500 
     37 H13       -19.4480   39.2740    3.3990 H         1 MOL         0.1500 
     38 H14       -17.6950   37.6180    3.9580 H         1 MOL         0.1500 
@<TRIPOS>BOND
     1    4    1 ar   
     2    2    9 2    
     3   16    2 1    
     4    2   21 1    
     5   17    3 ar   
     6    3   18 ar   
     7    4    5 ar   
     8    6    4 1    
     9    7    6 ar   
    10    6   24 ar   
    11    7    8 1    
    12   21    7 ar   
    13    9    8 1    
    14    9   10 1    
    15   10   11 ar   
    16   10   15 ar   
    17   11   12 ar   
    18   12   13 ar   
    19   14   13 ar   
    20   15   14 ar   
    21   16   17 ar   
    22   16   20 ar   
    23   18   19 ar   
    24   19   20 ar   
    25   21   22 ar   
    26   22   23 ar   
    27   23   24 ar   
    28    3   25 1    
    29    8   26 1    
    30   11   27 1    
    31   12   28 1    
    32   13   29 1    
    33   14   30 1    
    34   15   31 1    
    35   17   32 1    
    36   18   33 1    
    37   19   34 1    
    38   20   35 1    
    39   22   36 1    
    40   23   37 1    
    41   24   38 1    
@<TRIPOS>SUBSTRUCTURE
     1 MOL         1 PERM              0 ****  ****    0 ROOT 
@<TRIPOS>NORMAL
@<TRIPOS>ALT_TYPE
MMFF94_ALT_TYPE_SET 
MMFF94 9 C5A 7 C5A 2 C5B 21 C5B 3 CB 6 CB 10 CB 11 CB 12 CB 13 CB 14 CB \
15 CB 16 CB 17 CB 18 CB 19 CB 20 CB 22 CB 23 CB 24 CB \
4 CO2M 25 HC 27 HC 28 HC 29 HC 30 HC 31 HC 32 HC 33 HC \
34 HC 35 HC 36 HC 37 HC 38 HC 26 HPYL 1 O2CM 5 O2CM 8 NPYL \

