#	Name:			3g31_ligand
#	Creating user name:	suminyi
#	Creation time:		Sun Sep 30 06:48:37 2018

#	Modifying user name:	suminyi
#	Modification time:	Sun Sep 30 06:48:37 2018

@<TRIPOS>MOLECULE
3g31_ligand
   31    33     1     1     0
SMALL
MMFF94_CHARGES


@<TRIPOS>ATOM
      1 O10        -3.1350   40.5370   23.9780 O.2       1 GF1        -0.5700 
      2 C7         -1.9700   40.6110   24.3310 C.2       1 GF1         0.5690 
      3 N8         -0.9010   40.0910   23.6990 N.am      1 GF1        -0.4201 
      4 C12        -0.9380   39.3220   22.4440 C.3       1 GF1         0.1941 
      5 C14        -1.7610   38.0560   22.5570 C.2       1 GF1         0.9060 
      6 O16        -1.7910   37.4390   23.6600 O.co2     1 GF1        -0.9000 
      7 O15        -2.3770   37.6620   21.5400 O.co2     1 GF1        -0.9000 
      8 C13        -1.3810   40.1670   21.2420 C.3       1 GF1         0.0000 
      9 C2         -1.5430   41.2920   25.6030 C.3       1 GF1         0.0610 
     10 C3         -0.0250   41.0990   25.6300 C.3       1 GF1         0.0610 
     11 C9          0.2410   40.3240   24.3680 C.2       1 GF1         0.5690 
     12 O11         1.3630   39.9550   24.0370 O.2       1 GF1        -0.5700 
     13 C1         -1.6770   42.8190   25.6340 C.3       1 GF1         0.0000 
     14 C6         -1.2130   43.4770   24.3330 C.3       1 GF1         0.0000 
     15 C5          0.3130   43.2860   24.3820 C.3       1 GF1         0.0000 
     16 C17        -0.5190   43.2020   26.5410 C.3       1 GF1         0.0000 
     17 C4          0.5300   42.5270   25.6850 C.3       1 GF1         0.0000 
     18 H1          0.0969   39.0078   22.2433 H         1 GF1         0.0000 
     19 H2         -1.3893   39.5415   20.3372 H         1 GF1         0.0000 
     20 H3         -0.6798   41.0031   21.1032 H         1 GF1         0.0000 
     21 H4         -2.3914   40.5620   21.4239 H         1 GF1         0.0000 
     22 H5         -2.0532   40.8412   26.4670 H         1 GF1         0.0000 
     23 H6          0.3171   40.5281   26.5058 H         1 GF1         0.0000 
     24 H7         -2.6717   43.1561   25.9612 H         1 GF1         0.0000 
     25 H8         -1.4785   44.5443   24.3117 H         1 GF1         0.0000 
     26 H9         -1.6477   42.9734   23.4569 H         1 GF1         0.0000 
     27 H10         0.8311   44.2562   24.4003 H         1 GF1         0.0000 
     28 H11         0.6644   42.6988   23.5208 H         1 GF1         0.0000 
     29 H12        -0.5983   42.7674   27.5484 H         1 GF1         0.0000 
     30 H13        -0.3755   44.2896   26.6211 H         1 GF1         0.0000 
     31 H14         1.5641   42.5780   26.0564 H         1 GF1         0.0000 
@<TRIPOS>BOND
     1    1    2 2    
     2    2    3 am   
     3    2    9 1    
     4    3    4 1    
     5    3   11 am   
     6    4    5 1    
     7    4    8 1    
     8    5    6 ar   
     9    5    7 ar   
    10    9   10 1    
    11    9   13 1    
    12   10   11 1    
    13   10   17 1    
    14   11   12 2    
    15   13   14 1    
    16   13   16 1    
    17   14   15 1    
    18   15   17 1    
    19   16   17 1    
    20    4   18 1    
    21    8   19 1    
    22    8   20 1    
    23    8   21 1    
    24    9   22 1    
    25   10   23 1    
    26   13   24 1    
    27   14   25 1    
    28   14   26 1    
    29   15   27 1    
    30   15   28 1    
    31   16   29 1    
    32   16   30 1    
    33   17   31 1    
@<TRIPOS>SUBSTRUCTURE
     1 GF1         1 PERM              0 ****  ****    0 ROOT 
@<TRIPOS>NORMAL
@<TRIPOS>ALT_TYPE
MMFF94_ALT_TYPE_SET 
MMFF94 4 CR 8 CR 9 CR 10 CR 13 CR 14 CR 15 CR 16 CR 17 CR 5 CO2M 2 C=ON \
11 C=ON 18 HC 19 HC 20 HC 21 HC 22 HC 23 HC 24 HC 25 HC \
26 HC 27 HC 28 HC 29 HC 30 HC 31 HC 6 O2CM 7 O2CM 1 O=CN \
12 O=CN 3 NC=O 
