#	Name:			3g31_ligand
#	Creating user name:	suminyi
#	Creation time:		Sun Sep 30 06:51:08 2018

#	Modifying user name:	suminyi
#	Modification time:	Sun Sep 30 06:51:08 2018

@<TRIPOS>MOLECULE
3g31_ligand
   31    33     1     1     0
SMALL
MMFF94_CHARGES


@<TRIPOS>ATOM
      1 O10        -3.6230   40.7540   24.2640 O.2       1 MOL        -0.5700 
      2 C7         -2.4480   40.6850   24.5710 C.2       1 MOL         0.5690 
      3 N8         -1.4810   40.0490   23.8830 N.am      1 MOL        -0.4201 
      4 C12        -1.7390   39.1780   22.6930 C.3       1 MOL         0.1941 
      5 C14        -3.0090   38.3160   22.7540 C.2       1 MOL         0.9060 
      6 O16        -3.3070   37.7590   23.7970 O.co2     1 MOL        -0.9000 
      7 O15        -3.8020   38.3150   21.8280 O.co2     1 MOL        -0.9000 
      8 C13        -1.6770   40.0150   21.3970 C.3       1 MOL         0.0000 
      9 C2         -1.8400   41.3560   25.7810 C.3       1 MOL         0.0610 
     10 C3         -0.3410   41.0080   25.6820 C.3       1 MOL         0.0610 
     11 C9         -0.2500   40.2210   24.3930 C.2       1 MOL         0.5690 
     12 O11         0.7800   39.8150   23.8950 O.2       1 MOL        -0.5700 
     13 C1         -1.8390   42.9100   25.8110 C.3       1 MOL         0.0000 
     14 C6         -1.3880   43.5060   24.4510 C.3       1 MOL         0.0000 
     15 C5          0.1200   43.1720   24.4060 C.3       1 MOL         0.0000 
     16 C17        -0.5910   43.1650   26.6670 C.3       1 MOL         0.0000 
     17 C4          0.3500   42.4010   25.7250 C.3       1 MOL         0.0000 
     18 H1         -0.9360   38.4390   22.6420 H         1 MOL         0.0000 
     19 H2         -1.6570   39.3670   20.5180 H         1 MOL         0.0000 
     20 H3         -0.7800   40.6290   21.3910 H         1 MOL         0.0000 
     21 H4         -2.5440   40.6730   21.3190 H         1 MOL         0.0000 
     22 H5         -2.2770   40.9400   26.6920 H         1 MOL         0.0000 
     23 H6         -0.0310   40.3800   26.5190 H         1 MOL         0.0000 
     24 H7         -2.7600   43.3470   26.2060 H         1 MOL         0.0000 
     25 H8         -1.5300   44.5890   24.4450 H         1 MOL         0.0000 
     26 H9         -1.9280   43.0850   23.6000 H         1 MOL         0.0000 
     27 H10         0.7120   44.0920   24.3980 H         1 MOL         0.0000 
     28 H11         0.3910   42.5830   23.5290 H         1 MOL         0.0000 
     29 H12        -0.6580   42.7180   27.6630 H         1 MOL         0.0000 
     30 H13        -0.3450   44.2260   26.7540 H         1 MOL         0.0000 
     31 H14         1.3960   42.3700   26.0390 H         1 MOL         0.0000 
@<TRIPOS>BOND
     1    1    2 2    
     2    2    3 am   
     3    2    9 1    
     4    3    4 1    
     5    3   11 am   
     6    4    5 1    
     7    4    8 1    
     8    5    6 ar   
     9    5    7 ar   
    10    9   10 1    
    11    9   13 1    
    12   10   11 1    
    13   10   17 1    
    14   11   12 2    
    15   13   14 1    
    16   13   16 1    
    17   14   15 1    
    18   15   17 1    
    19   16   17 1    
    20    4   18 1    
    21    8   19 1    
    22    8   20 1    
    23    8   21 1    
    24    9   22 1    
    25   10   23 1    
    26   13   24 1    
    27   14   25 1    
    28   14   26 1    
    29   15   27 1    
    30   15   28 1    
    31   16   29 1    
    32   16   30 1    
    33   17   31 1    
@<TRIPOS>SUBSTRUCTURE
     1 MOL         1 PERM              0 ****  ****    0 ROOT 
@<TRIPOS>NORMAL
@<TRIPOS>ALT_TYPE
MMFF94_ALT_TYPE_SET 
MMFF94 4 CR 8 CR 9 CR 10 CR 13 CR 14 CR 15 CR 16 CR 17 CR 5 CO2M 2 C=ON \
11 C=ON 18 HC 19 HC 20 HC 21 HC 22 HC 23 HC 24 HC 25 HC \
26 HC 27 HC 28 HC 29 HC 30 HC 31 HC 6 O2CM 7 O2CM 1 O=CN \
12 O=CN 3 NC=O 
