#	Name:			3wtj_ligand
#	Creating user name:	suminyi
#	Creation time:		Sun Sep 30 06:51:00 2018

#	Modifying user name:	suminyi
#	Modification time:	Sun Sep 30 06:51:00 2018

@<TRIPOS>MOLECULE
3wtj_ligand
   25    26     1     1     0
SMALL
MMFF94_CHARGES


@<TRIPOS>ATOM
      1 C5         29.8780  -26.7320  -30.3290 C.ar      1 MOL        -0.1500 
      2 C6         29.8130  -26.3470  -31.6680 C.ar      1 MOL        -0.1500 
      3 C1         29.7090  -24.9940  -31.9790 C.ar      1 MOL         0.4870 
      4 Cl7        29.4770  -24.4730  -33.6090 Cl        1 MOL        -0.1770 
      5 N2         29.7050  -24.0150  -31.0550 N.ar      1 MOL        -0.6200 
      6 C3         29.8220  -24.4050  -29.7660 C.ar      1 MOL         0.1600 
      7 C4         29.8480  -25.7340  -29.3550 C.ar      1 MOL        -0.1435 
      8 C8         29.7530  -26.0620  -27.8740 C.3       1 MOL         0.5126 
      9 N9         31.0060  -26.6030  -27.3350 N.pl3     1 MOL        -0.7882 
     10 C13        32.0720  -25.6380  -27.0840 C.3       1 MOL         0.3691 
     11 C12        33.3290  -26.4720  -26.8350 C.3       1 MOL         0.2300 
     12 S11        32.7940  -28.1340  -26.3390 S.3       1 MOL        -0.3710 
     13 C10        31.2440  -27.9170  -27.1070 C.2       1 MOL         0.6410 
     14 N14        30.3480  -28.8200  -27.2080 N.2       1 MOL        -0.5560 
     15 C15        30.5170  -30.0920  -26.9140 C.1       1 MOL         0.6631 
     16 N16        30.7250  -31.1540  -26.5640 N.1       1 MOL        -0.5571 
     17 H1         29.9270  -27.7840  -30.0470 H         1 MOL         0.1500 
     18 H2         29.8240  -27.0930  -32.4580 H         1 MOL         0.1500 
     19 H3         29.7670  -23.6100  -29.0310 H         1 MOL         0.1500 
     20 H4         28.9390  -26.7790  -27.7230 H         1 MOL         0.0000 
     21 H5         29.4810  -25.1670  -27.3060 H         1 MOL         0.0000 
     22 H6         31.8250  -25.0690  -26.1860 H         1 MOL         0.0000 
     23 H7         32.2190  -24.9610  -27.9290 H         1 MOL         0.0000 
     24 H8         33.9460  -26.0210  -26.0580 H         1 MOL         0.0000 
     25 H9         33.9050  -26.5500  -27.7630 H         1 MOL         0.0000 
@<TRIPOS>BOND
     1    1    2 ar   
     2    1    7 ar   
     3    2    3 ar   
     4    3    4 1    
     5    3    5 ar   
     6    5    6 ar   
     7    6    7 ar   
     8    7    8 1    
     9    8    9 1    
    10    9   10 1    
    11    9   13 1    
    12   10   11 1    
    13   11   12 1    
    14   12   13 1    
    15   13   14 2    
    16   14   15 1    
    17   15   16 3    
    18    1   17 1    
    19    2   18 1    
    20    6   19 1    
    21    8   20 1    
    22    8   21 1    
    23   10   22 1    
    24   10   23 1    
    25   11   24 1    
    26   11   25 1    
@<TRIPOS>SUBSTRUCTURE
     1 MOL         1 PERM              0 ****  ****    0 ROOT 
@<TRIPOS>NORMAL
@<TRIPOS>ALT_TYPE
MMFF94_ALT_TYPE_SET 
MMFF94 8 CR 10 CR 11 CR 1 CB 2 CB 3 CB 6 CB 7 CB 13 C=N 15 CSP 17 HC \
18 HC 19 HC 20 HC 21 HC 22 HC 23 HC 24 HC 25 HC 5 NPYD \
16 NSP 14 N=C 9 NC=N 12 S 4 CL 
