3wtj_ligand

Created by X-TOOL on Sun Nov 13 14:27:12 2016
 24 25  0  0  0  0  0  0  0  0999 V2000
   29.8120  -26.6700  -30.4830  C 0  0  0  2  0  3
   29.7920  -26.2740  -31.8490  C 0  0  0  2  0  3
   29.6820  -24.8930  -32.1610  C 0  0  0  1  0  3
   29.6260  -24.3450  -33.8640 Cl 0  0  0  1  0  1
   29.6060  -23.9590  -31.1430  N 0  0  0  1  0  2
   29.6240  -24.3160  -29.8270  C 0  0  0  2  0  3
   29.7220  -25.6780  -29.4600  C 0  0  0  1  0  3
   29.7060  -26.0590  -27.9900  C 0  0  0  3  0  4
   30.9450  -26.5950  -27.4330  N 0  0  0  1  0  3
   32.0910  -25.6830  -27.3020  C 0  0  0  2  0  3
   33.2460  -26.4860  -26.6920  C 0  0  0  2  0  3
   32.6410  -28.1120  -26.4410  S 0  0  0  1  0  2
   31.1000  -27.8620  -27.0270  C 0  0  0  1  0  3
   30.1710  -28.7560  -27.0850  N 0  0  0  2  0  3
   30.3190  -29.9160  -26.7110  C 0  0  0  1  0  2
   30.4740  -31.0140  -26.3690  N 0  0  0  1  0  1
   29.8951  -27.7184  -30.2203  H 0  0  0  1  0  1
   29.8596  -27.0138  -32.6384  H 0  0  0  1  0  1
   29.5630  -23.5529  -29.0595  H 0  0  0  1  0  1
   28.9234  -26.8196  -27.8523  H 0  0  0  1  0  1
   29.4462  -25.1575  -27.4158  H 0  0  0  1  0  1
   32.1149  -24.6319  -27.5857  H 0  0  0  1  0  1
   34.2447  -26.1188  -26.4605  H 0  0  0  1  0  1
   29.2545  -28.4810  -27.4662  H 0  0  0  1  0  1
  1  2  4  0  0  1
  1  7  4  0  0  1
  2  3  4  0  0  1
  3  4  1  0  0  2
  3  5  4  0  0  1
  5  6  4  0  0  1
  6  7  4  0  0  1
  7  8  1  0  0  2
  8  9  1  0  0  2
  9 10  1  0  0  1
  9 13  2  0  0  1
 10 11  2  0  0  1
 11 12  1  0  0  1
 12 13  1  0  0  1
 13 14  1  0  0  2
 14 15  1  0  0  2
 15 16  3  0  0  2
  1 17  1  0  0  2
  2 18  1  0  0  2
  6 19  1  0  0  2
  8 20  1  0  0  2
  8 21  1  0  0  2
 10 22  1  0  0  2
 11 23  1  0  0  2
 14 24  1  0  0  2
M  END
> <MOLECULAR_FORMULA>
C10H8N4SCl

> <MOLECULAR_WEIGHT>
251.7

> <NUM_HB_ATOMS>
4  

> <NUM_ROTOR>
2  

> <XLOGP2>
2.38 

$$$$
