#	Name:			2cbv_ligand
#	Creating user name:	suminyi
#	Creation time:		Sun Sep 30 06:50:58 2018

#	Modifying user name:	suminyi
#	Modification time:	Sun Sep 30 06:50:58 2018

@<TRIPOS>MOLECULE
2cbv_ligand
   26    27     1     1     0
SMALL
MMFF94_CHARGES


@<TRIPOS>ATOM
      1 O2          0.5820   12.7430   10.3290 O.3       1 MOL        -0.6800 
      2 C2         -0.0460   11.5700    9.8370 C.3       1 MOL         0.7830 
      3 N1         -1.0660   11.1940   10.8040 N.4       1 MOL        -0.9060 
      4 C8          0.8870   10.3540    9.8900 C.3       1 MOL         0.0000 
      5 C7         -0.0420    9.1680   10.2640 C.3       1 MOL         0.0000 
      6 C6         -1.4370    9.8190   10.3670 C.3       1 MOL         0.5030 
      7 C3         -0.5870   11.7560    8.3830 C.3       1 MOL         0.2800 
      8 O3          0.5210   12.0620    7.5200 O.3       1 MOL        -0.6800 
      9 C4         -1.2690   10.4470    7.8740 C.3       1 MOL         0.2800 
     10 O4         -1.9910   10.7540    6.6700 O.3       1 MOL        -0.6800 
     11 C5         -2.1800    9.8430    8.9920 C.3       1 MOL         0.2800 
     12 O5         -2.6030    8.5010    8.7130 O.3       1 MOL        -0.6800 
     13 H1         -0.1200   13.4690   10.4730 H         1 MOL         0.4000 
     14 H2         -1.8500   11.8990   10.8220 H         1 MOL         0.4500 
     15 H3         -0.6410   11.2250   11.7710 H         1 MOL         0.4500 
     16 H4          1.6360   10.5120   10.6580 H         1 MOL         0.0000 
     17 H5          1.4010   10.1900    8.9440 H         1 MOL         0.0000 
     18 H6          0.2460    8.7770   11.2440 H         1 MOL         0.0000 
     19 H7         -0.0120    8.3510    9.5390 H         1 MOL         0.0000 
     20 H8         -2.0620    9.3420   11.1280 H         1 MOL         0.0000 
     21 H9         -1.3120   12.5760    8.3800 H         1 MOL         0.0000 
     22 H10         0.1890   12.4440    6.6490 H         1 MOL         0.4000 
     23 H11        -0.4970    9.7140    7.6270 H         1 MOL         0.0000 
     24 H12        -2.2560    9.8890    6.1580 H         1 MOL         0.4000 
     25 H13        -3.0670   10.4770    9.0930 H         1 MOL         0.0000 
     26 H14        -2.2700    8.1520    7.8100 H         1 MOL         0.4000 
@<TRIPOS>BOND
     1    1    2 1    
     2    2    3 1    
     3    2    4 1    
     4    2    7 1    
     5    3    6 1    
     6    4    5 1    
     7    5    6 1    
     8    6   11 1    
     9    7    8 1    
    10    7    9 1    
    11    9   10 1    
    12    9   11 1    
    13   11   12 1    
    14    1   13 1    
    15    3   14 1    
    16    3   15 1    
    17    4   16 1    
    18    4   17 1    
    19    5   18 1    
    20    5   19 1    
    21    6   20 1    
    22    7   21 1    
    23    8   22 1    
    24    9   23 1    
    25   10   24 1    
    26   11   25 1    
    27   12   26 1    
@<TRIPOS>SUBSTRUCTURE
     1 MOL         1 PERM              0 ****  ****    0 ROOT 
@<TRIPOS>NORMAL
@<TRIPOS>ALT_TYPE
MMFF94_ALT_TYPE_SET 
MMFF94 2 CR 4 CR 5 CR 6 CR 7 CR 9 CR 11 CR 16 HC 17 HC 18 HC 19 HC 20 HC \
21 HC 23 HC 25 HC 14 HNR+ 15 HNR+ 13 HOR 22 HOR 24 HOR \
26 HOR 1 OR 8 OR 10 OR 12 OR 3 NR+ 
