#	Name:			3b1m_ligand
#	Creating user name:	suminyi
#	Creation time:		Sun Sep 30 06:48:56 2018

#	Modifying user name:	suminyi
#	Modification time:	Sun Sep 30 06:48:56 2018

@<TRIPOS>MOLECULE
3b1m_ligand
   65    69     1     1     0
SMALL
MMFF94_CHARGES


@<TRIPOS>ATOM
      1 C1         15.7740   50.8300   64.6170 C.2       1 KRC         0.0288 
      2 C2         16.1630   51.3720   63.4670 C.2       1 KRC         0.0767 
      3 C3         15.9890   50.6360   62.1930 C.2       1 KRC        -0.1500 
      4 C4         15.2070   49.5540   62.1390 C.2       1 KRC        -0.0615 
      5 C5         14.9780   48.7110   63.3990 C.3       1 KRC         0.3427 
      6 C6         14.8810   49.6450   64.6160 C.2       1 KRC         0.4946 
      7 O7         14.4690   48.9240   61.2220 O.3       1 KRC        -0.1592 
      8 C8         13.4550   48.1580   61.7360 C.ar      1 KRC         0.0825 
      9 C9         13.6810   47.9700   63.1160 C.ar      1 KRC        -0.1435 
     10 C10        12.3410   47.5920   61.1330 C.ar      1 KRC         0.0862 
     11 C11        11.4420   46.8460   61.8930 C.ar      1 KRC         0.0825 
     12 C12        11.6630   46.6650   63.2530 C.ar      1 KRC        -0.1500 
     13 C13        12.7740   47.2230   63.8640 C.ar      1 KRC         0.0825 
     14 O14        14.1550   49.4080   65.5780 O.2       1 KRC        -0.5700 
     15 O15        12.9800   47.0320   65.2130 O.3       1 KRC        -0.5325 
     16 O16        10.3340   46.2800   61.2970 O.3       1 KRC        -0.3625 
     17 C17        12.1040   47.7790   59.6940 C.2       1 KRC         0.5438 
     18 N18        10.8360   47.9200   59.2710 N.am      1 KRC        -0.7301 
     19 C19        16.1410   47.7400   63.5900 C.3       1 KRC         0.0000 
     20 O20        13.0450   47.7900   58.9090 O.2       1 KRC        -0.5700 
     21 C21        16.2490   51.3830   65.9010 C.2       1 KRC         0.4946 
     22 O22        16.7400   52.5980   63.4560 O.3       1 KRC        -0.5267 
     23 C23        17.7510   51.5090   66.1720 C.3       1 KRC         0.0610 
     24 O24        15.4430   51.7390   66.7480 O.2       1 KRC        -0.5700 
     25 C25         9.1820   45.7330   61.8970 C.3       1 KRC         0.2800 
     26 C26        10.5550   48.0910   57.8540 C.3       1 KRC         0.4436 
     27 C27         9.1190   48.5030   57.6710 C.ar      1 KRC        -0.1435 
     28 C28         8.7890   49.8260   57.3350 C.ar      1 KRC        -0.1435 
     29 C29         7.4490   50.1980   57.1720 C.ar      1 KRC        -0.1500 
     30 C30         6.4310   49.2540   57.3420 C.ar      1 KRC        -0.1500 
     31 C31         6.7490   47.9530   57.6720 C.ar      1 KRC         0.0000 
     32 C32         8.0920   47.5690   57.8380 C.ar      1 KRC         0.0000 
     33 C33         5.7310   47.0340   57.8370 C.ar      1 KRC        -0.1500 
     34 C34         6.0340   45.7080   58.1710 C.ar      1 KRC        -0.1500 
     35 C35         7.3670   45.3190   58.3370 C.ar      1 KRC        -0.1500 
     36 C36         8.3970   46.2550   58.1690 C.ar      1 KRC        -0.1500 
     37 C37         9.8750   50.8470   57.1500 C.3       1 KRC         0.1435 
     38 C38        10.3990   50.8580   55.7130 C.3       1 KRC         0.0000 
     39 H1         16.5015   50.9789   61.2954 H         1 KRC         0.1500 
     40 H2         10.9613   46.0832   63.8397 H         1 KRC         0.1500 
     41 H3         13.7783   47.4748   65.4761 H         1 KRC         0.4500 
     42 H4         10.0850   47.9073   59.9311 H         1 KRC         0.3700 
     43 H5         17.0620   48.3064   63.7925 H         1 KRC         0.0000 
     44 H6         16.2723   47.1409   62.6768 H         1 KRC         0.0000 
     45 H7         15.9266   47.0733   64.4383 H         1 KRC         0.0000 
     46 H8         16.7794   52.9362   64.3429 H         1 KRC         0.4500 
     47 H9         17.9083   51.9385   67.1724 H         1 KRC         0.0000 
     48 H10        18.2063   52.1652   65.4156 H         1 KRC         0.0000 
     49 H11        18.2172   50.5139   66.1227 H         1 KRC         0.0000 
     50 H12         8.4987   45.3699   61.1152 H         1 KRC         0.0000 
     51 H13         8.6774   46.5064   62.4946 H         1 KRC         0.0000 
     52 H14         9.4707   44.8957   62.5494 H         1 KRC         0.0000 
     53 H15        10.7334   47.1415   57.3280 H         1 KRC         0.0000 
     54 H16        11.2145   48.8685   57.4411 H         1 KRC         0.0000 
     55 H17         7.1998   51.2207   56.9133 H         1 KRC         0.1500 
     56 H18         5.3944   49.5442   57.2147 H         1 KRC         0.1500 
     57 H19         4.6987   47.3388   57.7081 H         1 KRC         0.1500 
     58 H20         5.2370   44.9848   58.3006 H         1 KRC         0.1500 
     59 H21         7.6039   44.2933   58.5957 H         1 KRC         0.1500 
     60 H22         9.4303   45.9536   58.2973 H         1 KRC         0.1500 
     61 H23        10.7060   50.6116   57.8311 H         1 KRC         0.0000 
     62 H24         9.4739   51.8424   57.3912 H         1 KRC         0.0000 
     63 H25        11.1904   51.6160   55.6171 H         1 KRC         0.0000 
     64 H26         9.5757   51.0985   55.0243 H         1 KRC         0.0000 
     65 H27        10.8078   49.8676   55.4642 H         1 KRC         0.0000 
@<TRIPOS>BOND
     1    1    2 2    
     2    1    6 1    
     3    1   21 1    
     4    2    3 1    
     5    2   22 1    
     6    3    4 2    
     7    4    5 1    
     8    4    7 1    
     9    5    6 1    
    10    5    9 1    
    11    5   19 1    
    12    6   14 2    
    13    7    8 1    
    14    8    9 ar   
    15    8   10 ar   
    16    9   13 ar   
    17   10   11 ar   
    18   10   17 1    
    19   11   12 ar   
    20   11   16 1    
    21   12   13 ar   
    22   13   15 1    
    23   16   25 1    
    24   17   18 am   
    25   17   20 2    
    26   18   26 1    
    27   21   23 1    
    28   21   24 2    
    29   26   27 1    
    30   27   28 ar   
    31   27   32 ar   
    32   28   29 ar   
    33   28   37 1    
    34   29   30 ar   
    35   30   31 ar   
    36   31   32 ar   
    37   31   33 ar   
    38   32   36 ar   
    39   33   34 ar   
    40   34   35 ar   
    41   35   36 ar   
    42   37   38 1    
    43    3   39 1    
    44   12   40 1    
    45   15   41 1    
    46   18   42 1    
    47   19   43 1    
    48   19   44 1    
    49   19   45 1    
    50   22   46 1    
    51   23   47 1    
    52   23   48 1    
    53   23   49 1    
    54   25   50 1    
    55   25   51 1    
    56   25   52 1    
    57   26   53 1    
    58   26   54 1    
    59   29   55 1    
    60   30   56 1    
    61   33   57 1    
    62   34   58 1    
    63   35   59 1    
    64   36   60 1    
    65   37   61 1    
    66   37   62 1    
    67   38   63 1    
    68   38   64 1    
    69   38   65 1    
@<TRIPOS>SUBSTRUCTURE
     1 KRC         1 PERM              0 ****  ****    0 ROOT 
@<TRIPOS>NORMAL
@<TRIPOS>ALT_TYPE
MMFF94_ALT_TYPE_SET 
MMFF94 5 CR 19 CR 23 CR 25 CR 26 CR 37 CR 38 CR 8 CB 9 CB 10 CB 11 CB \
12 CB 13 CB 27 CB 28 CB 29 CB 30 CB 31 CB 32 CB 33 CB \
34 CB 35 CB 36 CB 17 C=ON 6 C=OR 21 C=OR 1 C=C 2 C=C \
3 C=C 4 C=C 39 HC 40 HC 43 HC 44 HC 45 HC 47 HC 48 HC \
49 HC 50 HC 51 HC 52 HC 53 HC 54 HC 55 HC 56 HC 57 HC \
58 HC 59 HC 60 HC 61 HC 62 HC 63 HC 64 HC 65 HC 42 HNCO \
41 HOCC 46 HOCC 20 O=CN 14 O=CR 24 O=CR 7 OC=C 15 OC=C \
16 OC=C 22 OC=C 18 NC=O 
