#	Name:			3b1m_ligand
#	Creating user name:	suminyi
#	Creation time:		Sun Sep 30 06:51:02 2018

#	Modifying user name:	suminyi
#	Modification time:	Sun Sep 30 06:51:02 2018

@<TRIPOS>MOLECULE
3b1m_ligand
   65    69     1     1     0
SMALL
MMFF94_CHARGES


@<TRIPOS>ATOM
      1 C1         15.7520   50.7790   64.7090 C.2       1 MOL         0.0288 
      2 C2         16.0970   51.2710   63.5110 C.2       1 MOL         0.0767 
      3 C3         15.6510   50.6320   62.2980 C.2       1 MOL        -0.1500 
      4 C4         15.0440   49.4460   62.3550 C.2       1 MOL        -0.0615 
      5 C5         14.8790   48.6360   63.6190 C.3       1 MOL         0.3427 
      6 C6         14.9670   49.5310   64.8510 C.2       1 MOL         0.4946 
      7 O7         14.3140   48.8980   61.3400 O.3       1 MOL        -0.1592 
      8 C8         13.3430   48.1150   61.9280 C.ar      1 MOL         0.0825 
      9 C9         13.5570   47.9740   63.2810 C.ar      1 MOL        -0.1435 
     10 C10        12.2190   47.5850   61.2960 C.ar      1 MOL         0.0862 
     11 C11        11.3070   46.8760   62.0940 C.ar      1 MOL         0.0825 
     12 C12        11.5380   46.7190   63.4670 C.ar      1 MOL        -0.1500 
     13 C13        12.6570   47.2750   64.0740 C.ar      1 MOL         0.0825 
     14 O14        14.4490   49.1980   65.9020 O.2       1 MOL        -0.5700 
     15 O15        12.8400   47.1220   65.4080 O.3       1 MOL        -0.5325 
     16 O16        10.2190   46.2700   61.4940 O.3       1 MOL        -0.3625 
     17 C17        12.0590   47.7750   59.8150 C.2       1 MOL         0.5438 
     18 N18        10.8950   47.4530   59.2370 N.am      1 MOL        -0.7301 
     19 C19        16.0120   47.5940   63.7010 C.3       1 MOL         0.0000 
     20 O20        12.9350   48.2070   59.1060 O.2       1 MOL        -0.5700 
     21 C21        16.1210   51.4360   65.9590 C.2       1 MOL         0.4946 
     22 O22        16.7400   52.4360   63.4140 O.3       1 MOL        -0.5267 
     23 C23        17.5130   51.1660   66.4640 C.3       1 MOL         0.0610 
     24 O24        15.4150   52.3090   66.4160 O.2       1 MOL        -0.5700 
     25 C25         9.1110   45.6990   62.1940 C.3       1 MOL         0.2800 
     26 C26        10.5520   47.6110   57.8230 C.3       1 MOL         0.4436 
     27 C27         9.1120   48.1130   57.7180 C.ar      1 MOL        -0.1435 
     28 C28         8.8480   49.4710   57.4620 C.ar      1 MOL        -0.1435 
     29 C29         7.5340   49.9330   57.4310 C.ar      1 MOL        -0.1500 
     30 C30         6.4730   49.0680   57.6560 C.ar      1 MOL        -0.1500 
     31 C31         6.7150   47.7200   57.8920 C.ar      1 MOL         0.0000 
     32 C32         8.0310   47.2320   57.9330 C.ar      1 MOL         0.0000 
     33 C33         5.6340   46.8600   58.0820 C.ar      1 MOL        -0.1500 
     34 C34         5.8450   45.5050   58.3030 C.ar      1 MOL        -0.1500 
     35 C35         7.1410   45.0100   58.3640 C.ar      1 MOL        -0.1500 
     36 C36         8.2260   45.8670   58.1900 C.ar      1 MOL        -0.1500 
     37 C37         9.9400   50.5040   57.2240 C.3       1 MOL         0.1435 
     38 C38        10.2590   50.6730   55.7290 C.3       1 MOL         0.0000 
     39 H1         15.7280   51.2060   61.3790 H         1 MOL         0.1500 
     40 H2         10.8600   46.1450   64.0850 H         1 MOL         0.1500 
     41 H3         13.5860   47.7270   65.6830 H         1 MOL         0.4500 
     42 H4         10.1650   47.1440   59.8620 H         1 MOL         0.3700 
     43 H5         16.9910   48.0810   63.6990 H         1 MOL         0.0000 
     44 H6         15.9770   46.9050   62.8560 H         1 MOL         0.0000 
     45 H7         15.9370   47.0180   64.6220 H         1 MOL         0.0000 
     46 H8         16.8020   52.7700   64.3230 H         1 MOL         0.4500 
     47 H9         17.5750   51.3600   67.5350 H         1 MOL         0.0000 
     48 H10        18.2280   51.8060   65.9440 H         1 MOL         0.0000 
     49 H11        17.7980   50.1260   66.2800 H         1 MOL         0.0000 
     50 H12         8.3880   45.3220   61.4660 H         1 MOL         0.0000 
     51 H13         8.6410   46.4590   62.8190 H         1 MOL         0.0000 
     52 H14         9.4920   44.8790   62.7980 H         1 MOL         0.0000 
     53 H15        10.6740   46.6470   57.3250 H         1 MOL         0.0000 
     54 H16        11.2600   48.2810   57.3310 H         1 MOL         0.0000 
     55 H17         7.3420   50.9850   57.2380 H         1 MOL         0.1500 
     56 H18         5.4570   49.4470   57.6510 H         1 MOL         0.1500 
     57 H19         4.6180   47.2400   58.0470 H         1 MOL         0.1500 
     58 H20         5.0000   44.8310   58.4260 H         1 MOL         0.1500 
     59 H21         7.3010   43.9500   58.5450 H         1 MOL         0.1500 
     60 H22         9.2230   45.4450   58.2550 H         1 MOL         0.1500 
     61 H23        10.8400   50.2690   57.7890 H         1 MOL         0.0000 
     62 H24         9.6040   51.4610   57.6150 H         1 MOL         0.0000 
     63 H25        10.9320   51.5190   55.5750 H         1 MOL         0.0000 
     64 H26         9.3430   50.8680   55.1700 H         1 MOL         0.0000 
     65 H27        10.7260   49.7730   55.3260 H         1 MOL         0.0000 
@<TRIPOS>BOND
     1    1    2 2    
     2    1    6 1    
     3    1   21 1    
     4    2    3 1    
     5    2   22 1    
     6    3    4 2    
     7    4    5 1    
     8    4    7 1    
     9    5    6 1    
    10    5    9 1    
    11    5   19 1    
    12    6   14 2    
    13    7    8 1    
    14    8    9 ar   
    15    8   10 ar   
    16    9   13 ar   
    17   10   11 ar   
    18   10   17 1    
    19   11   12 ar   
    20   11   16 1    
    21   12   13 ar   
    22   13   15 1    
    23   16   25 1    
    24   17   18 am   
    25   17   20 2    
    26   18   26 1    
    27   21   23 1    
    28   21   24 2    
    29   26   27 1    
    30   27   28 ar   
    31   27   32 ar   
    32   28   29 ar   
    33   28   37 1    
    34   29   30 ar   
    35   30   31 ar   
    36   31   32 ar   
    37   31   33 ar   
    38   32   36 ar   
    39   33   34 ar   
    40   34   35 ar   
    41   35   36 ar   
    42   37   38 1    
    43    3   39 1    
    44   12   40 1    
    45   15   41 1    
    46   18   42 1    
    47   19   43 1    
    48   19   44 1    
    49   19   45 1    
    50   22   46 1    
    51   23   47 1    
    52   23   48 1    
    53   23   49 1    
    54   25   50 1    
    55   25   51 1    
    56   25   52 1    
    57   26   53 1    
    58   26   54 1    
    59   29   55 1    
    60   30   56 1    
    61   33   57 1    
    62   34   58 1    
    63   35   59 1    
    64   36   60 1    
    65   37   61 1    
    66   37   62 1    
    67   38   63 1    
    68   38   64 1    
    69   38   65 1    
@<TRIPOS>SUBSTRUCTURE
     1 MOL         1 PERM              0 ****  ****    0 ROOT 
@<TRIPOS>NORMAL
@<TRIPOS>ALT_TYPE
MMFF94_ALT_TYPE_SET 
MMFF94 5 CR 19 CR 23 CR 25 CR 26 CR 37 CR 38 CR 8 CB 9 CB 10 CB 11 CB \
12 CB 13 CB 27 CB 28 CB 29 CB 30 CB 31 CB 32 CB 33 CB \
34 CB 35 CB 36 CB 17 C=ON 6 C=OR 21 C=OR 1 C=C 2 C=C \
3 C=C 4 C=C 39 HC 40 HC 43 HC 44 HC 45 HC 47 HC 48 HC \
49 HC 50 HC 51 HC 52 HC 53 HC 54 HC 55 HC 56 HC 57 HC \
58 HC 59 HC 60 HC 61 HC 62 HC 63 HC 64 HC 65 HC 42 HNCO \
41 HOCC 46 HOCC 20 O=CN 14 O=CR 24 O=CR 7 OC=C 15 OC=C \
16 OC=C 22 OC=C 18 NC=O 
