#	Name:			1q8u_ligand
#	Creating user name:	suminyi
#	Creation time:		Sun Sep 30 06:51:02 2018

#	Modifying user name:	suminyi
#	Modification time:	Sun Sep 30 06:51:02 2018

@<TRIPOS>MOLECULE
1q8u_ligand
   44    46     1     1     0
SMALL
MMFF94_CHARGES


@<TRIPOS>ATOM
      1 O1          9.2810   11.2850    4.2090 O.2       1 MOL        -0.6500 
      2 S5          8.8500    9.8940    4.1890 S.o2      1 MOL         1.4470 
      3 O2          8.8710    9.2460    5.4880 O.2       1 MOL        -0.6500 
      4 N21        10.1370    9.1470    3.3540 N.am      1 MOL        -0.8494 
      5 C22        10.3560    7.7030    3.6780 C.3       1 MOL         0.3557 
      6 C2M         9.4980    6.8660    2.7370 C.3       1 MOL         0.0000 
      7 C23        11.8240    7.2390    3.5900 C.3       1 MOL         0.5030 
      8 N24        12.6720    7.7280    4.7490 N.4       1 MOL        -0.9060 
      9 C25        13.2830    9.0710    4.4200 C.3       1 MOL         0.5030 
     10 C26        12.2620   10.2040    4.2120 C.3       1 MOL         0.0000 
     11 C27        11.3260    9.9710    3.0070 C.3       1 MOL         0.3557 
     12 C5          7.4020    9.8620    3.0820 C.ar      1 MOL        -0.0090 
     13 C10         6.0220    9.8600    3.4590 C.ar      1 MOL         0.0000 
     14 C4          5.4760    9.9660    4.7650 C.ar      1 MOL        -0.1435 
     15 CM          6.2550   10.2380    6.0380 C.3       1 MOL         0.1435 
     16 C9          5.0620    9.7260    2.4290 C.ar      1 MOL         0.0000 
     17 C8          5.4220    9.6810    1.0870 C.ar      1 MOL        -0.1500 
     18 C7          6.7570    9.7560    0.7320 C.ar      1 MOL        -0.1500 
     19 C6          7.7290    9.8390    1.7180 C.ar      1 MOL        -0.1500 
     20 C1          3.7000    9.6250    2.7160 C.ar      1 MOL         0.1600 
     21 N2          3.2090    9.6680    3.9620 N.ar      1 MOL        -0.6200 
     22 C3          4.0960    9.8310    4.9550 C.ar      1 MOL         0.1600 
     23 H1         10.0420    7.4610    4.6980 H         1 MOL         0.0000 
     24 H2          9.5860    5.8060    2.9800 H         1 MOL         0.0000 
     25 H3          9.8190    7.0180    1.7030 H         1 MOL         0.0000 
     26 H4          8.4490    7.1470    2.8370 H         1 MOL         0.0000 
     27 H5         12.2770    7.5410    2.6420 H         1 MOL         0.0000 
     28 H6         11.8500    6.1570    3.6120 H         1 MOL         0.0000 
     29 H7         13.3890    7.0230    4.9640 H         1 MOL         0.4500 
     30 H8         12.0960    7.7090    5.6520 H         1 MOL         0.4500 
     31 H9         13.8730    8.9460    3.5040 H         1 MOL         0.0000 
     32 H10        13.9710    9.3370    5.2280 H         1 MOL         0.0000 
     33 H11        12.8170   11.1240    4.0240 H         1 MOL         0.0000 
     34 H12        11.6770   10.3550    5.1210 H         1 MOL         0.0000 
     35 H13        10.9990   10.9430    2.6230 H         1 MOL         0.0000 
     36 H14        11.8830    9.5070    2.1850 H         1 MOL         0.0000 
     37 H15         5.6040   10.5510    6.8550 H         1 MOL         0.0000 
     38 H16         6.9980   11.0260    5.9050 H         1 MOL         0.0000 
     39 H17         6.7250    9.3220    6.3800 H         1 MOL         0.0000 
     40 H18         4.6600    9.5930    0.3110 H         1 MOL         0.1500 
     41 H19         7.0370    9.7310   -0.3200 H         1 MOL         0.1500 
     42 H20         8.7710    9.8730    1.3990 H         1 MOL         0.1500 
     43 H21         2.9660    9.4930    1.9240 H         1 MOL         0.1500 
     44 H22         3.6570    9.8720    5.9520 H         1 MOL         0.1500 
@<TRIPOS>BOND
     1    1    2 2    
     2    2    3 2    
     3    2    4 am   
     4    2   12 1    
     5    4    5 1    
     6    4   11 1    
     7    5    6 1    
     8    5    7 1    
     9    7    8 1    
    10    8    9 1    
    11    9   10 1    
    12   10   11 1    
    13   12   13 ar   
    14   12   19 ar   
    15   13   14 ar   
    16   13   16 ar   
    17   14   15 1    
    18   14   22 ar   
    19   16   17 ar   
    20   16   20 ar   
    21   17   18 ar   
    22   18   19 ar   
    23   20   21 ar   
    24   21   22 ar   
    25    5   23 1    
    26    6   24 1    
    27    6   25 1    
    28    6   26 1    
    29    7   27 1    
    30    7   28 1    
    31    8   29 1    
    32    8   30 1    
    33    9   31 1    
    34    9   32 1    
    35   10   33 1    
    36   10   34 1    
    37   11   35 1    
    38   11   36 1    
    39   15   37 1    
    40   15   38 1    
    41   15   39 1    
    42   17   40 1    
    43   18   41 1    
    44   19   42 1    
    45   20   43 1    
    46   22   44 1    
@<TRIPOS>SUBSTRUCTURE
     1 MOL         1 PERM              0 ****  ****    0 ROOT 
@<TRIPOS>NORMAL
@<TRIPOS>ALT_TYPE
MMFF94_ALT_TYPE_SET 
MMFF94 5 CR 6 CR 7 CR 9 CR 10 CR 11 CR 15 CR 12 CB 13 CB 14 CB 16 CB \
17 CB 18 CB 19 CB 20 CB 22 CB 23 HC 24 HC 25 HC 26 HC \
27 HC 28 HC 31 HC 32 HC 33 HC 34 HC 35 HC 36 HC 37 HC \
38 HC 39 HC 40 HC 41 HC 42 HC 43 HC 44 HC 29 HNR+ 30 HNR+ \
1 O2S 3 O2S 21 NPYD 8 NR+ 4 NSO2 2 SO2N 
