#	Name:			1q8u_ligand
#	Creating user name:	suminyi
#	Creation time:		Sun Sep 30 06:48:44 2018

#	Modifying user name:	suminyi
#	Modification time:	Sun Sep 30 06:48:44 2018

@<TRIPOS>MOLECULE
1q8u_ligand
   44    46     1     1     0
SMALL
MMFF94_CHARGES


@<TRIPOS>ATOM
      1 O1          9.0020   11.3030    4.8480 O.2       1 H52        -0.6500 
      2 S5          8.8080    9.9310    4.3060 S.o2      1 H52         1.4470 
      3 O2          8.5320    8.8530    5.2640 O.2       1 H52        -0.6500 
      4 N21        10.1290    9.3450    3.3860 N.am      1 H52        -0.8494 
      5 C22        10.5140    7.8890    3.6060 C.3       1 H52         0.3557 
      6 C2M         9.5510    6.9010    2.9710 C.3       1 H52         0.0000 
      7 C23        11.9540    7.5010    3.2490 C.3       1 H52         0.5030 
      8 N24        12.8840    8.2120    4.2120 N.4       1 H52        -0.9060 
      9 C25        13.3440    9.5160    3.5810 C.3       1 H52         0.5030 
     10 C26        12.2700   10.6190    3.5870 C.3       1 H52         0.0000 
     11 C27        11.0890   10.2490    2.6990 C.3       1 H52         0.3557 
     12 C5          7.3940    9.9380    3.2180 C.ar      1 H52        -0.0090 
     13 C10         5.9780    9.8950    3.6190 C.ar      1 H52         0.0000 
     14 C4          5.3680    9.9110    4.9390 C.ar      1 H52        -0.1435 
     15 CM          6.0680   10.0340    6.2580 C.3       1 H52         0.1435 
     16 C9          5.0230    9.8180    2.5610 C.ar      1 H52         0.0000 
     17 C8          5.4370    9.7960    1.2000 C.ar      1 H52        -0.1500 
     18 C7          6.7620    9.8350    0.8680 C.ar      1 H52        -0.1500 
     19 C6          7.7460    9.8780    1.8860 C.ar      1 H52        -0.1500 
     20 C1          3.6240    9.7490    2.8360 C.ar      1 H52         0.1600 
     21 N2          3.1610    9.7220    4.0620 N.ar      1 H52        -0.6200 
     22 C3          4.0030    9.8280    5.1100 C.ar      1 H52         0.1600 
     23 H1         10.4304    7.7395    4.6926 H         1 H52         0.0000 
     24 H2          9.8932    5.8750    3.1715 H         1 H52         0.0000 
     25 H3          9.5156    7.0700    1.8846 H         1 H52         0.0000 
     26 H4          8.5468    7.0423    3.3970 H         1 H52         0.0000 
     27 H5         12.1786    7.8092    2.2172 H         1 H52         0.0000 
     28 H6         12.0813    6.4124    3.3425 H         1 H52         0.0000 
     29 H7         13.6833    7.6285    4.4034 H         1 H52         0.4500 
     30 H8         12.3960    8.4062    5.0723 H         1 H52         0.4500 
     31 H9         13.6298    9.3153    2.5379 H         1 H52         0.0000 
     32 H10        14.2198    9.8811    4.1374 H         1 H52         0.0000 
     33 H11        12.7157   11.5546    3.2184 H         1 H52         0.0000 
     34 H12        11.9118   10.7643    4.6168 H         1 H52         0.0000 
     35 H13        10.5622   11.1700    2.4088 H         1 H52         0.0000 
     36 H14        11.4681    9.7441    1.7983 H         1 H52         0.0000 
     37 H15         5.3262   10.0139    7.0700 H         1 H52         0.0000 
     38 H16         6.6227   10.9833    6.2916 H         1 H52         0.0000 
     39 H17         6.7689    9.1951    6.3808 H         1 H52         0.0000 
     40 H18         4.6908    9.7476    0.4152 H         1 H52         0.1500 
     41 H19         7.0600    9.8330   -0.1742 H         1 H52         0.1500 
     42 H20         8.7950    9.8635    1.6130 H         1 H52         0.1500 
     43 H21         2.9251    9.7181    2.0080 H         1 H52         0.1500 
     44 H22         3.5951    9.8485    6.1141 H         1 H52         0.1500 
@<TRIPOS>BOND
     1    1    2 2    
     2    2    3 2    
     3    2    4 am   
     4    2   12 1    
     5    4    5 1    
     6    4   11 1    
     7    5    6 1    
     8    5    7 1    
     9    7    8 1    
    10    8    9 1    
    11    9   10 1    
    12   10   11 1    
    13   12   13 ar   
    14   12   19 ar   
    15   13   14 ar   
    16   13   16 ar   
    17   14   15 1    
    18   14   22 ar   
    19   16   17 ar   
    20   16   20 ar   
    21   17   18 ar   
    22   18   19 ar   
    23   20   21 ar   
    24   21   22 ar   
    25    5   23 1    
    26    6   24 1    
    27    6   25 1    
    28    6   26 1    
    29    7   27 1    
    30    7   28 1    
    31    8   29 1    
    32    8   30 1    
    33    9   31 1    
    34    9   32 1    
    35   10   33 1    
    36   10   34 1    
    37   11   35 1    
    38   11   36 1    
    39   15   37 1    
    40   15   38 1    
    41   15   39 1    
    42   17   40 1    
    43   18   41 1    
    44   19   42 1    
    45   20   43 1    
    46   22   44 1    
@<TRIPOS>SUBSTRUCTURE
     1 H52         1 PERM              0 ****  ****    0 ROOT 
@<TRIPOS>NORMAL
@<TRIPOS>ALT_TYPE
MMFF94_ALT_TYPE_SET 
MMFF94 5 CR 6 CR 7 CR 9 CR 10 CR 11 CR 15 CR 12 CB 13 CB 14 CB 16 CB \
17 CB 18 CB 19 CB 20 CB 22 CB 23 HC 24 HC 25 HC 26 HC \
27 HC 28 HC 31 HC 32 HC 33 HC 34 HC 35 HC 36 HC 37 HC \
38 HC 39 HC 40 HC 41 HC 42 HC 43 HC 44 HC 29 HNR+ 30 HNR+ \
1 O2S 3 O2S 21 NPYD 8 NR+ 4 NSO2 2 SO2N 
