#	Name:			3f3e_ligand
#	Creating user name:	suminyi
#	Creation time:		Sun Sep 30 06:51:01 2018

#	Modifying user name:	suminyi
#	Modification time:	Sun Sep 30 06:51:01 2018

@<TRIPOS>MOLECULE
3f3e_ligand
   22    21     1     1     0
SMALL
MMFF94_CHARGES


@<TRIPOS>ATOM
      1 N          25.0080   32.3260   18.8390 N.4       1 MOL        -0.8530 
      2 CA         26.3560   31.6070   18.9030 C.3       1 MOL         0.3970 
      3 C          26.4000   30.2740   18.1490 C.2       1 MOL         0.9060 
      4 O          27.4570   29.6690   18.0810 O.co2     1 MOL        -0.9000 
      5 CB         26.8190   31.3500   20.3620 C.3       1 MOL         0.0000 
      6 CG         26.8900   32.6030   21.2630 C.3       1 MOL         0.0000 
      7 CD1        27.3170   32.1780   22.6790 C.3       1 MOL         0.0000 
      8 CD2        27.8780   33.6570   20.7250 C.3       1 MOL         0.0000 
      9 OXT        25.3440   29.7410   17.9250 O.co2     1 MOL        -0.9000 
     10 H1         25.0460   33.3120   19.1730 H         1 MOL         0.4500 
     11 H2         24.2940   31.8000   19.3800 H         1 MOL         0.4500 
     12 H3         24.6520   32.3330   17.8430 H         1 MOL         0.4500 
     13 H4         27.0710   32.2550   18.3920 H         1 MOL         0.0000 
     14 H5         27.8050   30.8830   20.3470 H         1 MOL         0.0000 
     15 H6         26.1340   30.6320   20.8190 H         1 MOL         0.0000 
     16 H7         25.8960   33.0460   21.3310 H         1 MOL         0.0000 
     17 H8         27.2780   33.0300   23.3600 H         1 MOL         0.0000 
     18 H9         28.3320   31.7740   22.6760 H         1 MOL         0.0000 
     19 H10        26.6460   31.4050   23.0580 H         1 MOL         0.0000 
     20 H11        27.6520   33.9180   19.6920 H         1 MOL         0.0000 
     21 H12        28.9070   33.2920   20.7700 H         1 MOL         0.0000 
     22 H13        27.8110   34.5720   21.3160 H         1 MOL         0.0000 
@<TRIPOS>BOND
     1    1    2 1    
     2    2    3 1    
     3    2    5 1    
     4    3    4 ar   
     5    3    9 ar   
     6    5    6 1    
     7    6    7 1    
     8    6    8 1    
     9    1   10 1    
    10    1   11 1    
    11    1   12 1    
    12    2   13 1    
    13    5   14 1    
    14    5   15 1    
    15    6   16 1    
    16    7   17 1    
    17    7   18 1    
    18    7   19 1    
    19    8   20 1    
    20    8   21 1    
    21    8   22 1    
@<TRIPOS>SUBSTRUCTURE
     1 MOL         1 PERM              0 ****  ****    0 ROOT 
@<TRIPOS>NORMAL
@<TRIPOS>ALT_TYPE
MMFF94_ALT_TYPE_SET 
MMFF94 2 CR 5 CR 6 CR 7 CR 8 CR 3 CO2M 13 HC 14 HC 15 HC 16 HC 17 HC \
18 HC 19 HC 20 HC 21 HC 22 HC 10 HNR+ 11 HNR+ 12 HNR+ \
4 O2CM 9 O2CM 1 NR+ 
