#	Name:			3f3d_ligand
#	Creating user name:	suminyi
#	Creation time:		Sun Sep 30 06:51:00 2018

#	Modifying user name:	suminyi
#	Modification time:	Sun Sep 30 06:51:00 2018

@<TRIPOS>MOLECULE
3f3d_ligand
   20    19     1     1     0
SMALL
MMFF94_CHARGES


@<TRIPOS>ATOM
      1 N          24.7990   32.0900   18.8180 N.4       1 MOL        -0.8530 
      2 CA         26.1060   31.3230   19.0680 C.3       1 MOL         0.3970 
      3 C          26.2660   30.0600   18.2110 C.2       1 MOL         0.9060 
      4 O          27.2900   29.4060   18.2480 O.co2     1 MOL        -0.9000 
      5 CB         26.2700   30.9380   20.5630 C.3       1 MOL         0.0000 
      6 CG         26.3810   32.1360   21.5210 C.3       1 MOL         0.2300 
      7 SD         28.0290   32.9010   21.4690 S.3       1 MOL        -0.4600 
      8 CE         27.6470   34.4240   20.5550 C.3       1 MOL         0.2300 
      9 OXT        25.2980   29.6590   17.6190 O.co2     1 MOL        -0.9000 
     10 H1         24.8250   33.0860   19.1090 H         1 MOL         0.4500 
     11 H2         24.0070   31.6180   19.2930 H         1 MOL         0.4500 
     12 H3         24.5430   32.0570   17.7890 H         1 MOL         0.4500 
     13 H4         26.9220   31.9800   18.7600 H         1 MOL         0.0000 
     14 H5         27.1620   30.3220   20.6930 H         1 MOL         0.0000 
     15 H6         25.4220   30.3290   20.8730 H         1 MOL         0.0000 
     16 H7         26.2220   31.7750   22.5400 H         1 MOL         0.0000 
     17 H8         25.6110   32.8830   21.3090 H         1 MOL         0.0000 
     18 H9         28.5600   34.9860   20.3690 H         1 MOL         0.0000 
     19 H10        26.9590   35.0380   21.1390 H         1 MOL         0.0000 
     20 H11        27.1880   34.1550   19.6050 H         1 MOL         0.0000 
@<TRIPOS>BOND
     1    1    2 1    
     2    2    3 1    
     3    2    5 1    
     4    3    4 ar   
     5    3    9 ar   
     6    5    6 1    
     7    6    7 1    
     8    7    8 1    
     9    1   10 1    
    10    1   11 1    
    11    1   12 1    
    12    2   13 1    
    13    5   14 1    
    14    5   15 1    
    15    6   16 1    
    16    6   17 1    
    17    8   18 1    
    18    8   19 1    
    19    8   20 1    
@<TRIPOS>SUBSTRUCTURE
     1 MOL         1 PERM              0 ****  ****    0 ROOT 
@<TRIPOS>NORMAL
@<TRIPOS>ALT_TYPE
MMFF94_ALT_TYPE_SET 
MMFF94 2 CR 5 CR 6 CR 8 CR 3 CO2M 13 HC 14 HC 15 HC 16 HC 17 HC 18 HC \
19 HC 20 HC 10 HNR+ 11 HNR+ 12 HNR+ 4 O2CM 9 O2CM 1 NR+ \
7 S
