#	Name:			2v00_ligand
#	Creating user name:	suminyi
#	Creation time:		Sun Sep 30 06:50:57 2018

#	Modifying user name:	suminyi
#	Modification time:	Sun Sep 30 06:50:57 2018

@<TRIPOS>MOLECULE
2v00_ligand
   29    30     1     1     0
SMALL
MMFF94_CHARGES


@<TRIPOS>ATOM
      1 N1         -0.0740    5.9640    8.9540 N.am      1 MOL        -0.4900 
      2 C2          0.8460    5.1560    9.5030 C.2       1 MOL         0.5600 
      3 C3         -1.3640    5.8270    9.2220 C.2       1 MOL         0.6156 
      4 C4         -1.6950    4.6710   10.0450 C.2       1 MOL        -0.1356 
      5 C5         -0.7200    3.8720   10.5940 C.2       1 MOL         0.0328 
      6 N6          0.5890    4.2360   10.3950 N.2       1 MOL        -0.6210 
      7 C8         -2.9440    0.3940   10.4690 C.ar      1 MOL        -0.1500 
      8 C9         -3.8190   -0.2570    9.6040 C.ar      1 MOL        -0.1500 
      9 C10        -5.0430    0.3240    9.2840 C.ar      1 MOL        -0.1500 
     10 C11        -5.3800    1.5660    9.8180 C.ar      1 MOL        -0.1500 
     11 C12        -4.5000    2.2200   10.6780 C.ar      1 MOL        -0.1500 
     12 N14         2.1360    5.3440    9.2730 N.pl3     1 MOL        -0.8500 
     13 C15        -0.9200    2.5910   11.3500 C.3       1 MOL         0.1382 
     14 C7         -3.2770    1.6400   11.0110 C.ar      1 MOL        -0.1435 
     15 C16        -2.3220    2.3630   11.9480 C.3       1 MOL         0.1435 
     16 O15        -2.1490    6.6590    8.8200 O.2       1 MOL        -0.5700 
     17 H1          0.2150    6.6230    8.2700 H         1 MOL         0.3700 
     18 H2         -2.7520    4.4830   10.1600 H         1 MOL         0.1500 
     19 H3         -1.9760   -0.0680   10.6590 H         1 MOL         0.1500 
     20 H4         -3.5160   -1.1990    9.1450 H         1 MOL         0.1500 
     21 H5         -5.7100   -0.1780    8.5850 H         1 MOL         0.1500 
     22 H6         -6.3110    2.0490    9.5340 H         1 MOL         0.1500 
     23 H7         -4.7560    3.2080   11.0490 H         1 MOL         0.1500 
     24 H8          2.6320    4.5040    9.5990 H         1 MOL         0.4000 
     25 H9          2.4230    5.5850    8.3190 H         1 MOL         0.4000 
     26 H10        -0.1880    2.5610   12.1590 H         1 MOL         0.0000 
     27 H11        -0.6500    1.7750   10.6790 H         1 MOL         0.0000 
     28 H12        -2.7450    3.3070   12.2970 H         1 MOL         0.0000 
     29 H13        -2.1950    1.7310   12.8280 H         1 MOL         0.0000 
@<TRIPOS>BOND
     1    2    1 am   
     2    3    1 am   
     3    6    2 2    
     4    2   12 1    
     5    4    3 1    
     6    3   16 2    
     7    5    4 2    
     8    5    6 1    
     9   13    5 1    
    10    7    8 ar   
    11   14    7 ar   
    12    8    9 ar   
    13   10    9 ar   
    14   11   10 ar   
    15   14   11 ar   
    16   15   13 1    
    17   14   15 1    
    18    1   17 1    
    19    4   18 1    
    20    7   19 1    
    21    8   20 1    
    22    9   21 1    
    23   10   22 1    
    24   11   23 1    
    25   12   24 1    
    26   12   25 1    
    27   13   26 1    
    28   13   27 1    
    29   15   28 1    
    30   15   29 1    
@<TRIPOS>SUBSTRUCTURE
     1 MOL         1 PERM              0 ****  ****    0 ROOT 
@<TRIPOS>NORMAL
@<TRIPOS>ALT_TYPE
MMFF94_ALT_TYPE_SET 
MMFF94 13 CR 15 CR 7 CB 8 CB 9 CB 10 CB 11 CB 14 CB 2 CGD 3 C=ON 4 C=C \
5 C=C 18 HC 19 HC 20 HC 21 HC 22 HC 23 HC 26 HC 27 HC \
28 HC 29 HC 17 HNCN 24 HNCN 25 HNCN 16 O=CN 6 N=C 1 NC=O \
12 NC=N 
