#	Name:			4ea2_ligand
#	Creating user name:	suminyi
#	Creation time:		Sun Sep 30 06:50:57 2018

#	Modifying user name:	suminyi
#	Modification time:	Sun Sep 30 06:50:57 2018

@<TRIPOS>MOLECULE
4ea2_ligand
   64    66     1     1     0
SMALL
MMFF94_CHARGES


@<TRIPOS>ATOM
      1 CAA       -28.3020  -10.6220   -7.6580 C.3       1 MOL         0.1382 
      2 CAB       -26.3300  -10.3290   -6.0930 C.3       1 MOL         0.1382 
      3 CAC       -24.9300  -15.3600   -8.9460 C.3       1 MOL         0.1382 
      4 CAD       -26.6260  -12.4300   -7.4670 C.2       1 MOL        -0.2882 
      5 CAE       -22.7270  -14.4240   -9.4700 C.2       1 MOL        -0.2882 
      6 CAF       -25.3790  -13.1500   -6.9930 C.3       1 MOL         0.1382 
      7 CAG       -21.6470  -13.3970   -9.5690 C.3       1 MOL         0.6412 
      8 CAH       -19.7700  -15.1010   -9.3260 C.3       1 MOL         0.5030 
      9 CAI       -20.3830  -16.3020   -8.5930 C.3       1 MOL         0.5030 
     10 CAJ       -24.2520  -13.0310   -8.0510 C.3       1 MOL         0.1382 
     11 CAK       -22.4370  -20.3090   -5.9830 C.3       1 MOL         0.0000 
     12 CAL       -21.1480  -19.8940   -8.1040 C.3       1 MOL         0.0000 
     13 CAM       -23.6490  -20.0670   -8.1970 C.3       1 MOL         0.0000 
     14 CAN       -21.3770  -18.1210   -6.2910 C.3       1 MOL         0.0000 
     15 CAO       -23.8400  -18.2520   -6.4760 C.3       1 MOL         0.0000 
     16 NAP       -20.3600  -13.7710   -8.8820 N.4       1 MOL        -0.9060 
     17 NAQ       -21.2920  -17.2380   -9.3680 N.4       1 MOL        -0.9060 
     18 CAR       -27.0320  -11.2190   -7.0970 C.2       1 MOL        -0.2764 
     19 CAS       -23.8750  -14.2920   -8.8160 C.2       1 MOL        -0.2764 
     20 CAT       -21.2040  -19.6260   -6.5750 C.3       1 MOL         0.0000 
     21 CAU       -23.6970  -19.7760   -6.6820 C.3       1 MOL         0.0000 
     22 CAV       -22.4110  -19.3660   -8.8050 C.3       1 MOL         0.0000 
     23 CAW       -22.5910  -17.5500   -7.0670 C.3       1 MOL         0.0000 
     24 CAX       -22.4700  -17.8430   -8.6070 C.3       1 MOL         0.5030 
     25 H1        -28.7940   -9.9740   -6.9270 H         1 MOL         0.0000 
     26 H2        -29.0100  -11.3980   -7.9390 H         1 MOL         0.0000 
     27 H3        -28.0820  -10.0300   -8.5470 H         1 MOL         0.0000 
     28 H4        -25.3190  -10.6540   -5.8530 H         1 MOL         0.0000 
     29 H5        -26.9150  -10.3140   -5.1730 H         1 MOL         0.0000 
     30 H6        -26.2650   -9.3040   -6.4630 H         1 MOL         0.0000 
     31 H7        -24.6230  -16.1310   -9.6460 H         1 MOL         0.0000 
     32 H8        -25.8620  -14.9220   -9.3080 H         1 MOL         0.0000 
     33 H9        -25.1190  -15.8580   -7.9990 H         1 MOL         0.0000 
     34 H10       -27.2250  -12.9820   -8.1920 H         1 MOL         0.1500 
     35 H11       -22.5970  -15.2680  -10.1350 H         1 MOL         0.1500 
     36 H12       -25.6270  -14.1830   -6.7610 H         1 MOL         0.0000 
     37 H13       -25.0230  -12.7450   -6.0460 H         1 MOL         0.0000 
     38 H14       -22.0050  -12.4730   -9.1180 H         1 MOL         0.0000 
     39 H15       -21.4260  -13.2210  -10.6210 H         1 MOL         0.0000 
     40 H16       -19.8580  -15.1940  -10.4100 H         1 MOL         0.0000 
     41 H17       -18.7010  -15.0810   -9.0850 H         1 MOL         0.0000 
     42 H18       -20.9620  -15.9150   -7.7530 H         1 MOL         0.0000 
     43 H19       -19.5720  -16.9200   -8.1890 H         1 MOL         0.0000 
     44 H20       -23.3750  -12.6140   -7.5600 H         1 MOL         0.0000 
     45 H21       -24.5710  -12.3000   -8.7950 H         1 MOL         0.0000 
     46 H22       -22.4970  -20.1250   -4.9070 H         1 MOL         0.0000 
     47 H23       -22.3640  -21.3820   -6.1230 H         1 MOL         0.0000 
     48 H24       -21.1380  -20.9500   -8.3190 H         1 MOL         0.0000 
     49 H25       -20.2230  -19.4970   -8.5270 H         1 MOL         0.0000 
     50 H26       -24.5640  -19.7210   -8.6830 H         1 MOL         0.0000 
     51 H27       -23.5880  -21.1460   -8.3690 H         1 MOL         0.0000 
     52 H28       -20.4740  -17.6170   -6.5700 H         1 MOL         0.0000 
     53 H29       -21.5070  -17.9590   -5.2180 H         1 MOL         0.0000 
     54 H30       -23.9360  -18.0300   -5.4080 H         1 MOL         0.0000 
     55 H31       -24.7510  -17.8950   -6.9560 H         1 MOL         0.0000 
     56 H32       -20.5070  -13.7560   -7.8590 H         1 MOL         0.4500 
     57 H33       -19.6770  -13.0150   -9.0840 H         1 MOL         0.4500 
     58 H34       -20.7360  -18.0590   -9.6930 H         1 MOL         0.4500 
     59 H35       -21.5650  -16.8460  -10.3050 H         1 MOL         0.4500 
     60 H36       -20.3040  -20.0240   -6.0970 H         1 MOL         0.0000 
     61 H37       -24.5030  -20.3050   -6.2250 H         1 MOL         0.0000 
     62 H38       -22.3640  -19.6160   -9.8650 H         1 MOL         0.0000 
     63 H39       -22.6880  -16.4780   -6.8870 H         1 MOL         0.0000 
     64 H40       -23.3780  -17.4930   -9.1020 H         1 MOL         0.0000 
@<TRIPOS>BOND
     1   18    1 1    
     2   18    2 1    
     3   19    3 1    
     4    6    4 1    
     5    4   18 2    
     6    7    5 1    
     7    5   19 2    
     8   10    6 1    
     9   16    7 1    
    10    9    8 1    
    11    8   16 1    
    12   17    9 1    
    13   19   10 1    
    14   20   11 1    
    15   21   11 1    
    16   12   20 1    
    17   22   12 1    
    18   13   21 1    
    19   22   13 1    
    20   20   14 1    
    21   14   23 1    
    22   21   15 1    
    23   15   23 1    
    24   24   17 1    
    25   22   24 1    
    26   23   24 1    
    27    1   25 1    
    28    1   26 1    
    29    1   27 1    
    30    2   28 1    
    31    2   29 1    
    32    2   30 1    
    33    3   31 1    
    34    3   32 1    
    35    3   33 1    
    36    4   34 1    
    37    5   35 1    
    38    6   36 1    
    39    6   37 1    
    40    7   38 1    
    41    7   39 1    
    42    8   40 1    
    43    8   41 1    
    44    9   42 1    
    45    9   43 1    
    46   10   44 1    
    47   10   45 1    
    48   11   46 1    
    49   11   47 1    
    50   12   48 1    
    51   12   49 1    
    52   13   50 1    
    53   13   51 1    
    54   14   52 1    
    55   14   53 1    
    56   15   54 1    
    57   15   55 1    
    58   16   56 1    
    59   16   57 1    
    60   17   58 1    
    61   17   59 1    
    62   20   60 1    
    63   21   61 1    
    64   22   62 1    
    65   23   63 1    
    66   24   64 1    
@<TRIPOS>SUBSTRUCTURE
     1 MOL         1 PERM              0 ****  ****    0 ROOT 
@<TRIPOS>NORMAL
@<TRIPOS>ALT_TYPE
MMFF94_ALT_TYPE_SET 
MMFF94 1 CR 2 CR 3 CR 6 CR 7 CR 8 CR 9 CR 10 CR 11 CR 12 CR 13 CR 14 CR \
15 CR 20 CR 21 CR 22 CR 23 CR 24 CR 4 C=C 5 C=C 18 C=C \
19 C=C 25 HC 26 HC 27 HC 28 HC 29 HC 30 HC 31 HC 32 HC \
33 HC 34 HC 35 HC 36 HC 37 HC 38 HC 39 HC 40 HC 41 HC \
42 HC 43 HC 44 HC 45 HC 46 HC 47 HC 48 HC 49 HC 50 HC \
51 HC 52 HC 53 HC 54 HC 55 HC 60 HC 61 HC 62 HC 63 HC \
64 HC 56 HNR+ 57 HNR+ 58 HNR+ 59 HNR+ 16 NR+ 17 NR+ 
