#	Name:			3gbb_ligand
#	Creating user name:	suminyi
#	Creation time:		Sun Sep 30 06:51:12 2018

#	Modifying user name:	suminyi
#	Modification time:	Sun Sep 30 06:51:13 2018

@<TRIPOS>MOLECULE
3gbb_ligand
   34    35     1     1     0
SMALL
MMFF94_CHARGES


@<TRIPOS>ATOM
      1 O          -0.9510   45.2800   -1.0880 O.co2     1 MOL        -0.9000 
      2 C          -0.9930   44.1280   -0.7060 C.2       1 MOL         0.9060 
      3 OXT        -1.6360   43.3110   -1.3480 O.co2     1 MOL        -0.9000 
      4 CA         -0.6000   43.8060    0.7460 C.3       1 MOL         0.3970 
      5 N          -0.7870   42.3560    1.1940 N.4       1 MOL        -0.8530 
      6 CB          0.8320   44.3100    1.0620 C.3       1 MOL         0.0000 
      7 CAS         1.1720   44.4210    2.5880 C.3       1 MOL         0.1740 
      8 CAJ         2.7060   44.6350    2.7550 C.3       1 MOL         0.0000 
      9 CAN         0.3960   45.5590    3.3150 C.2       1 MOL         0.9060 
     10 OAC         0.4950   45.6640    4.5270 O.co2     1 MOL        -0.9000 
     11 OAE        -0.1000   46.4520    2.6390 O.co2     1 MOL        -0.9000 
     12 OAL         0.9630   43.0970    3.1780 O.3       1 MOL        -0.5600 
     13 CAR         2.1510   42.2980    2.9950 C.3       1 MOL         0.2800 
     14 CAQ         3.3030   43.3010    3.2260 C.3       1 MOL         0.2800 
     15 CAH         2.1350   41.0880    3.9450 C.3       1 MOL         0.0000 
     16 CAP         2.4490   41.5470    5.3760 C.3       1 MOL         0.0000 
     17 CAG         3.8160   42.2470    5.3780 C.3       1 MOL         0.2800 
     18 OAK         3.6490   43.4690    4.6350 O.3       1 MOL        -0.5600 
     19 H1         -1.2850   44.4020    1.3520 H         1 MOL         0.0000 
     20 H2         -0.4290   42.2370    2.1800 H         1 MOL         0.4500 
     21 H3         -0.3340   41.6460    0.5890 H         1 MOL         0.4500 
     22 H4         -1.7840   42.0840    1.2930 H         1 MOL         0.4500 
     23 H5          0.9900   45.2890    0.6030 H         1 MOL         0.0000 
     24 H6          1.5350   43.6330    0.5840 H         1 MOL         0.0000 
     25 H7          2.8950   45.3950    3.5110 H         1 MOL         0.0000 
     26 H8          3.1760   44.9600    1.8260 H         1 MOL         0.0000 
     27 H9          2.1730   41.9450    1.9610 H         1 MOL         0.0000 
     28 H10         4.1950   43.0190    2.6590 H         1 MOL         0.0000 
     29 H11         2.8900   40.3680    3.6160 H         1 MOL         0.0000 
     30 H12         1.1640   40.5920    3.9030 H         1 MOL         0.0000 
     31 H13         2.4540   40.7040    6.0520 H         1 MOL         0.0000 
     32 H14         1.6770   42.2390    5.7230 H         1 MOL         0.0000 
     33 H15         4.5770   41.6230    4.9020 H         1 MOL         0.0000 
     34 H16         4.1280   42.4890    6.3960 H         1 MOL         0.0000 
@<TRIPOS>BOND
     1    1    2 ar   
     2    2    3 ar   
     3    2    4 1    
     4    4    5 1    
     5    4    6 1    
     6    6    7 1    
     7    7    8 1    
     8    7    9 1    
     9    7   12 1    
    10    8   14 1    
    11    9   10 ar   
    12    9   11 ar   
    13   12   13 1    
    14   13   14 1    
    15   13   15 1    
    16   14   18 1    
    17   15   16 1    
    18   16   17 1    
    19   17   18 1    
    20    4   19 1    
    21    5   20 1    
    22    5   21 1    
    23    5   22 1    
    24    6   23 1    
    25    6   24 1    
    26    8   25 1    
    27    8   26 1    
    28   13   27 1    
    29   14   28 1    
    30   15   29 1    
    31   15   30 1    
    32   16   31 1    
    33   16   32 1    
    34   17   33 1    
    35   17   34 1    
@<TRIPOS>SUBSTRUCTURE
     1 MOL         1 PERM              0 ****  ****    0 ROOT 
@<TRIPOS>NORMAL
@<TRIPOS>ALT_TYPE
MMFF94_ALT_TYPE_SET 
MMFF94 4 CR 6 CR 7 CR 8 CR 13 CR 14 CR 15 CR 16 CR 17 CR 2 CO2M 9 CO2M \
19 HC 23 HC 24 HC 25 HC 26 HC 27 HC 28 HC 29 HC 30 HC \
31 HC 32 HC 33 HC 34 HC 20 HNR+ 21 HNR+ 22 HNR+ 1 O2CM \
3 O2CM 10 O2CM 11 O2CM 12 OR 18 OR 5 NR+ 
