#	Name:			3gbb_ligand
#	Creating user name:	suminyi
#	Creation time:		Sun Sep 30 06:48:52 2018

#	Modifying user name:	suminyi
#	Modification time:	Sun Sep 30 06:48:52 2018

@<TRIPOS>MOLECULE
3gbb_ligand
   34    35     1     1     0
SMALL
MMFF94_CHARGES


@<TRIPOS>ATOM
      1 O          -0.8170   45.2370   -0.9810 O.co2     1 MS8        -0.9000 
      2 C          -1.0370   44.0780   -0.5690 C.2       1 MS8         0.9060 
      3 OXT        -1.5230   43.1350   -1.2330 O.co2     1 MS8        -0.9000 
      4 CA         -0.6620   43.7910    0.8850 C.3       1 MS8         0.3970 
      5 N          -0.9680   42.3940    1.2250 N.4       1 MS8        -0.8530 
      6 CB          0.8300   44.0870    1.0630 C.3       1 MS8         0.0000 
      7 CAS         1.2030   44.1780    2.5440 C.3       1 MS8         0.1740 
      8 CAJ         2.7070   44.4540    2.6510 C.3       1 MS8         0.0000 
      9 CAN         0.3910   45.2750    3.2340 C.2       1 MS8         0.9060 
     10 OAC        -0.1330   44.9940    4.3340 O.co2     1 MS8        -0.9000 
     11 OAE         0.2960   46.3700    2.6380 O.co2     1 MS8        -0.9000 
     12 OAL         1.0080   42.9110    3.1830 O.3       1 MS8        -0.5600 
     13 CAR         2.1810   42.1810    2.8020 C.3       1 MS8         0.2800 
     14 CAQ         3.2570   43.1570    3.2470 C.3       1 MS8         0.2800 
     15 CAH         2.2610   40.8620    3.5720 C.3       1 MS8         0.0000 
     16 CAP         2.4000   41.1160    5.0730 C.3       1 MS8         0.0000 
     17 CAG         3.5820   42.0530    5.3200 C.3       1 MS8         0.2800 
     18 OAK         3.2970   43.3040    4.6760 O.3       1 MS8        -0.5600 
     19 H1         -1.2420   44.4508    1.5469 H         1 MS8         0.0000 
     20 H2         -0.7161   42.2190    2.1852 H         1 MS8         0.4500 
     21 H3         -0.4437   41.7790    0.6226 H         1 MS8         0.4500 
     22 H4         -1.9541   42.2261    1.1004 H         1 MS8         0.4500 
     23 H5          1.0670   45.0434    0.5739 H         1 MS8         0.0000 
     24 H6          1.4141   43.2810    0.5948 H         1 MS8         0.0000 
     25 H7          2.9053   45.3085    3.3146 H         1 MS8         0.0000 
     26 H8          3.1439   44.6497    1.6606 H         1 MS8         0.0000 
     27 H9          2.2202   41.9883    1.7197 H         1 MS8         0.0000 
     28 H10         4.2497   42.8891    2.8561 H         1 MS8         0.0000 
     29 H11         3.1336   40.2919    3.2206 H         1 MS8         0.0000 
     30 H12         1.3452   40.2811    3.3881 H         1 MS8         0.0000 
     31 H13         2.5728   40.1620    5.5926 H         1 MS8         0.0000 
     32 H14         1.4781   41.5794    5.4541 H         1 MS8         0.0000 
     33 H15         4.4993   41.6163    4.8983 H         1 MS8         0.0000 
     34 H16         3.7141   42.2108    6.4006 H         1 MS8         0.0000 
@<TRIPOS>BOND
     1    1    2 ar   
     2    2    3 ar   
     3    2    4 1    
     4    4    5 1    
     5    4    6 1    
     6    6    7 1    
     7    7    8 1    
     8    7    9 1    
     9    7   12 1    
    10    8   14 1    
    11    9   10 ar   
    12    9   11 ar   
    13   12   13 1    
    14   13   14 1    
    15   13   15 1    
    16   14   18 1    
    17   15   16 1    
    18   16   17 1    
    19   17   18 1    
    20    4   19 1    
    21    5   20 1    
    22    5   21 1    
    23    5   22 1    
    24    6   23 1    
    25    6   24 1    
    26    8   25 1    
    27    8   26 1    
    28   13   27 1    
    29   14   28 1    
    30   15   29 1    
    31   15   30 1    
    32   16   31 1    
    33   16   32 1    
    34   17   33 1    
    35   17   34 1    
@<TRIPOS>SUBSTRUCTURE
     1 MS8         1 PERM              0 ****  ****    0 ROOT 
@<TRIPOS>NORMAL
@<TRIPOS>ALT_TYPE
MMFF94_ALT_TYPE_SET 
MMFF94 4 CR 6 CR 7 CR 8 CR 13 CR 14 CR 15 CR 16 CR 17 CR 2 CO2M 9 CO2M \
19 HC 23 HC 24 HC 25 HC 26 HC 27 HC 28 HC 29 HC 30 HC \
31 HC 32 HC 33 HC 34 HC 20 HNR+ 21 HNR+ 22 HNR+ 1 O2CM \
3 O2CM 10 O2CM 11 O2CM 12 OR 18 OR 5 NR+ 
