#	Name:			3wz8_ligand
#	Creating user name:	suminyi
#	Creation time:		Sun Sep 30 06:50:55 2018

#	Modifying user name:	suminyi
#	Modification time:	Sun Sep 30 06:50:55 2018

@<TRIPOS>MOLECULE
3wz8_ligand
   58    61     1     1     0
SMALL
MMFF94_CHARGES


@<TRIPOS>ATOM
      1 O1         22.6800    3.1260   55.8810 O.2       1 MOL        -0.5700 
      2 C18        22.7700    2.9510   57.0830 C.2       1 MOL         0.5690 
      3 C19        22.3050    1.7000   57.7840 C.3       1 MOL         0.0610 
      4 C20        22.9180    0.4140   57.2010 C.3       1 MOL         0.3691 
      5 N2         22.3080   -0.7410   57.8700 N.pl3     1 MOL        -0.8691 
      6 C21        21.0880   -1.2730   57.5370 C.ar      1 MOL         0.1000 
      7 C23        20.6650   -2.4150   58.2100 C.ar      1 MOL        -0.1500 
      8 C25        19.4460   -3.0130   57.8950 C.ar      1 MOL        -0.1500 
      9 C26        18.6390   -2.4690   56.9000 C.ar      1 MOL        -0.1500 
     10 C24        19.0490   -1.3230   56.2250 C.ar      1 MOL        -0.1500 
     11 C22        20.2680   -0.7260   56.5460 C.ar      1 MOL        -0.1500 
     12 N1         23.2710    3.8950   57.8980 N.am      1 MOL        -0.4940 
     13 C2         23.6630    5.1920   57.5890 C.2       1 MOL         0.1040 
     14 S          22.9590    6.2120   56.3520 S.3       1 MOL        -0.0800 
     15 C3         24.5200    5.8910   58.4190 C.2       1 MOL        -0.0860 
     16 C1         24.6920    7.2260   57.9270 C.2       1 MOL        -0.0540 
     17 C4         25.7500    8.0910   58.4130 C.ar      1 MOL         0.0540 
     18 C6         25.5710    9.4750   58.4860 C.ar      1 MOL        -0.1500 
     19 C8         26.5820   10.2860   59.0120 C.ar      1 MOL        -0.1500 
     20 C9         27.8000    9.7360   59.3990 C.ar      1 MOL        -0.1500 
     21 C7         28.0110    8.3690   59.2640 C.ar      1 MOL        -0.1500 
     22 C5         26.9940    7.5560   58.7760 C.ar      1 MOL        -0.1500 
     23 C          23.9240    7.5720   56.8480 C.2       1 MOL        -0.1100 
     24 C10        25.1200    5.3910   59.6750 C.2       1 MOL         0.7160 
     25 O          25.3080    6.0760   60.6640 O.2       1 MOL        -0.5700 
     26 N          25.4630    4.0960   59.6480 N.am      1 MOL        -0.7301 
     27 C11        25.9310    3.2980   60.7810 C.3       1 MOL         0.4436 
     28 C12        24.9250    2.1970   61.0650 C.ar      1 MOL        -0.1435 
     29 C14        25.2670    0.8690   60.8120 C.ar      1 MOL        -0.1500 
     30 C16        24.3330   -0.1460   61.0010 C.ar      1 MOL        -0.1500 
     31 C17        23.0420    0.1630   61.4230 C.ar      1 MOL        -0.1500 
     32 C15        22.6890    1.4910   61.6580 C.ar      1 MOL        -0.1500 
     33 C13        23.6310    2.5050   61.4940 C.ar      1 MOL        -0.1500 
     34 H1         21.2180    1.6640   57.7180 H         1 MOL         0.0000 
     35 H2         22.5490    1.7480   58.8450 H         1 MOL         0.0000 
     36 H3         23.9960    0.4030   57.3760 H         1 MOL         0.0000 
     37 H4         22.7620    0.3530   56.1230 H         1 MOL         0.0000 
     38 H5         22.9440   -1.3300   58.4070 H         1 MOL         0.4000 
     39 H6         21.2980   -2.8610   58.9710 H         1 MOL         0.1500 
     40 H7         19.1400   -3.9220   58.4080 H         1 MOL         0.1500 
     41 H8         17.7090   -2.9630   56.6240 H         1 MOL         0.1500 
     42 H9         18.4430   -0.9290   55.4120 H         1 MOL         0.1500 
     43 H10        20.5920    0.1390   55.9810 H         1 MOL         0.1500 
     44 H11        23.4280    3.5790   58.8440 H         1 MOL         0.3700 
     45 H12        24.6130    9.9100   58.2090 H         1 MOL         0.1500 
     46 H13        26.4240   11.3520   59.1400 H         1 MOL         0.1500 
     47 H14        28.5890   10.3680   59.7990 H         1 MOL         0.1500 
     48 H15        28.9660    7.9190   59.5350 H         1 MOL         0.1500 
     49 H16        27.2020    6.4920   58.6590 H         1 MOL         0.1500 
     50 H17        23.9090    8.4690   56.2470 H         1 MOL         0.1500 
     51 H18        25.4930    3.6350   58.7480 H         1 MOL         0.3700 
     52 H19        26.0650    3.9260   61.6620 H         1 MOL         0.0000 
     53 H20        26.9080    2.8700   60.5260 H         1 MOL         0.0000 
     54 H21        26.2570    0.6180   60.4280 H         1 MOL         0.1500 
     55 H22        24.6080   -1.1730   60.7650 H         1 MOL         0.1500 
     56 H23        22.3030   -0.6280   61.5180 H         1 MOL         0.1500 
     57 H24        21.6640    1.7430   61.9140 H         1 MOL         0.1500 
     58 H25        23.3390    3.5420   61.6490 H         1 MOL         0.1500 
@<TRIPOS>BOND
     1    1    2 2    
     2    2    3 1    
     3    2   12 am   
     4    3    4 1    
     5    4    5 1    
     6    5    6 1    
     7    6    7 ar   
     8    6   11 ar   
     9    7    8 ar   
    10    8    9 ar   
    11    9   10 ar   
    12   10   11 ar   
    13   12   13 1    
    14   13   14 1    
    15   13   15 2    
    16   14   23 1    
    17   15   16 1    
    18   15   24 1    
    19   16   17 1    
    20   16   23 2    
    21   17   18 ar   
    22   17   22 ar   
    23   18   19 ar   
    24   19   20 ar   
    25   20   21 ar   
    26   21   22 ar   
    27   24   25 2    
    28   24   26 am   
    29   26   27 1    
    30   27   28 1    
    31   28   29 ar   
    32   28   33 ar   
    33   29   30 ar   
    34   30   31 ar   
    35   31   32 ar   
    36   32   33 ar   
    37    3   34 1    
    38    3   35 1    
    39    4   36 1    
    40    4   37 1    
    41    5   38 1    
    42    7   39 1    
    43    8   40 1    
    44    9   41 1    
    45   10   42 1    
    46   11   43 1    
    47   12   44 1    
    48   18   45 1    
    49   19   46 1    
    50   20   47 1    
    51   21   48 1    
    52   22   49 1    
    53   23   50 1    
    54   26   51 1    
    55   27   52 1    
    56   27   53 1    
    57   29   54 1    
    58   30   55 1    
    59   31   56 1    
    60   32   57 1    
    61   33   58 1    
@<TRIPOS>SUBSTRUCTURE
     1 MOL         1 PERM              0 ****  ****    0 ROOT 
@<TRIPOS>NORMAL
@<TRIPOS>ALT_TYPE
MMFF94_ALT_TYPE_SET 
MMFF94 3 CR 4 CR 27 CR 13 C5A 23 C5A 15 C5B 16 C5B 6 CB 7 CB 8 CB 9 CB \
10 CB 11 CB 17 CB 18 CB 19 CB 20 CB 21 CB 22 CB 28 CB \
29 CB 30 CB 31 CB 32 CB 33 CB 2 C=ON 24 C=ON 34 HC 35 HC \
36 HC 37 HC 39 HC 40 HC 41 HC 42 HC 43 HC 45 HC 46 HC \
47 HC 48 HC 49 HC 50 HC 52 HC 53 HC 54 HC 55 HC 56 HC \
57 HC 58 HC 38 HNCC 44 HNCC 51 HNCO 1 O=CN 25 O=CN 12 NC=O \
26 NC=O 5 NC=C 14 STHI 
