#	Name:			3wz8_ligand
#	Creating user name:	suminyi
#	Creation time:		Sun Sep 30 06:48:42 2018

#	Modifying user name:	suminyi
#	Modification time:	Sun Sep 30 06:48:42 2018

@<TRIPOS>MOLECULE
3wz8_ligand
   58    61     1     1     0
SMALL
MMFF94_CHARGES


@<TRIPOS>ATOM
      1 O1         23.1420    3.0480   55.9960 O.2       1 IXV        -0.5700 
      2 C18        22.6600    3.0160   57.1060 C.2       1 IXV         0.5690 
      3 C19        22.2850    1.7100   57.7730 C.3       1 IXV         0.0610 
      4 C20        22.5920    0.5050   56.9000 C.3       1 IXV         0.3691 
      5 N2         22.1850   -0.7350   57.5690 N.pl3     1 IXV        -0.8691 
      6 C21        20.9520   -1.3930   57.3700 C.ar      1 IXV         0.1000 
      7 C23        20.5770   -2.4860   58.1410 C.ar      1 IXV        -0.1500 
      8 C25        19.3560   -3.1000   57.9120 C.ar      1 IXV        -0.1500 
      9 C26        18.5130   -2.6260   56.9200 C.ar      1 IXV        -0.1500 
     10 C24        18.8870   -1.5330   56.1560 C.ar      1 IXV        -0.1500 
     11 C22        20.1060   -0.9170   56.3820 C.ar      1 IXV        -0.1500 
     12 N1         22.4190    4.1800   57.7970 N.am      1 IXV        -0.4940 
     13 C2         23.1020    5.4010   57.6130 C.2       1 IXV         0.1040 
     14 S          22.7640    6.3790   56.3870 S.3       1 IXV        -0.0800 
     15 C3         24.1380    5.9500   58.3660 C.2       1 IXV        -0.0860 
     16 C1         24.5510    7.1830   57.8450 C.2       1 IXV        -0.0540 
     17 C4         25.6090    8.0570   58.3980 C.ar      1 IXV         0.0540 
     18 C6         25.3450    9.4090   58.5500 C.ar      1 IXV        -0.1500 
     19 C8         26.3160   10.2580   59.0590 C.ar      1 IXV        -0.1500 
     20 C9         27.5540    9.7580   59.4250 C.ar      1 IXV        -0.1500 
     21 C7         27.8200    8.4050   59.2750 C.ar      1 IXV        -0.1500 
     22 C5         26.8500    7.5530   58.7600 C.ar      1 IXV        -0.1500 
     23 C          23.8280    7.5330   56.7140 C.2       1 IXV        -0.1100 
     24 C10        24.7190    5.3330   59.5810 C.2       1 IXV         0.7160 
     25 O          24.5210    5.8160   60.6710 O.2       1 IXV        -0.5700 
     26 N          25.4980    4.1940   59.4520 N.am      1 IXV        -0.7301 
     27 C11        25.8980    3.3320   60.5840 C.3       1 IXV         0.4436 
     28 C12        24.9240    2.2190   60.8880 C.ar      1 IXV        -0.1435 
     29 C14        25.3040    0.8930   60.8090 C.ar      1 IXV        -0.1500 
     30 C16        24.3810   -0.1040   61.0950 C.ar      1 IXV        -0.1500 
     31 C17        23.0840    0.2190   61.4620 C.ar      1 IXV        -0.1500 
     32 C15        22.7020    1.5500   61.5390 C.ar      1 IXV        -0.1500 
     33 C13        23.6250    2.5430   61.2520 C.ar      1 IXV        -0.1500 
     34 H1         21.2071    1.7220   57.9922 H         1 IXV         0.0000 
     35 H2         22.8494    1.6184   58.7127 H         1 IXV         0.0000 
     36 H3         23.6731    0.4696   56.7000 H         1 IXV         0.0000 
     37 H4         22.0461    0.5988   55.9496 H         1 IXV         0.0000 
     38 H5         22.8486   -1.1575   58.2339 H         1 IXV         0.4000 
     39 H6         21.2361   -2.8567   58.9177 H         1 IXV         0.1500 
     40 H7         19.0596   -3.9536   58.5108 H         1 IXV         0.1500 
     41 H8         17.5600   -3.1109   56.7417 H         1 IXV         0.1500 
     42 H9         18.2259   -1.1603   55.3819 H         1 IXV         0.1500 
     43 H10        20.3988   -0.0610   55.7849 H         1 IXV         0.1500 
     44 H11        21.6978    4.1595   58.4894 H         1 IXV         0.3700 
     45 H12        24.3754    9.8044   58.2698 H         1 IXV         0.1500 
     46 H13        26.1053   11.3155   59.1706 H         1 IXV         0.1500 
     47 H14        28.3119   10.4207   59.8269 H         1 IXV         0.1500 
     48 H15        28.7884    8.0104   59.5606 H         1 IXV         0.1500 
     49 H16        27.0627    6.4967   58.6414 H         1 IXV         0.1500 
     50 H17        23.9620    8.4478   56.1386 H         1 IXV         0.1500 
     51 H18        25.8087    3.9396   58.5362 H         1 IXV         0.3700 
     52 H19        25.9929    3.9619   61.4807 H         1 IXV         0.0000 
     53 H20        26.8733    2.8819   60.3472 H         1 IXV         0.0000 
     54 H21        26.3173    0.6325   60.5253 H         1 IXV         0.1500 
     55 H22        24.6775   -1.1447   61.0307 H         1 IXV         0.1500 
     56 H23        22.3710   -0.5657   61.6879 H         1 IXV         0.1500 
     57 H24        21.6887    1.8117   61.8216 H         1 IXV         0.1500 
     58 H25        23.3289    3.5840   61.3125 H         1 IXV         0.1500 
@<TRIPOS>BOND
     1    1    2 2    
     2    2    3 1    
     3    2   12 am   
     4    3    4 1    
     5    4    5 1    
     6    5    6 1    
     7    6    7 ar   
     8    6   11 ar   
     9    7    8 ar   
    10    8    9 ar   
    11    9   10 ar   
    12   10   11 ar   
    13   12   13 1    
    14   13   14 1    
    15   13   15 2    
    16   14   23 1    
    17   15   16 1    
    18   15   24 1    
    19   16   17 1    
    20   16   23 2    
    21   17   18 ar   
    22   17   22 ar   
    23   18   19 ar   
    24   19   20 ar   
    25   20   21 ar   
    26   21   22 ar   
    27   24   25 2    
    28   24   26 am   
    29   26   27 1    
    30   27   28 1    
    31   28   29 ar   
    32   28   33 ar   
    33   29   30 ar   
    34   30   31 ar   
    35   31   32 ar   
    36   32   33 ar   
    37    3   34 1    
    38    3   35 1    
    39    4   36 1    
    40    4   37 1    
    41    5   38 1    
    42    7   39 1    
    43    8   40 1    
    44    9   41 1    
    45   10   42 1    
    46   11   43 1    
    47   12   44 1    
    48   18   45 1    
    49   19   46 1    
    50   20   47 1    
    51   21   48 1    
    52   22   49 1    
    53   23   50 1    
    54   26   51 1    
    55   27   52 1    
    56   27   53 1    
    57   29   54 1    
    58   30   55 1    
    59   31   56 1    
    60   32   57 1    
    61   33   58 1    
@<TRIPOS>SUBSTRUCTURE
     1 IXV         1 PERM              0 ****  ****    0 ROOT 
@<TRIPOS>NORMAL
@<TRIPOS>ALT_TYPE
MMFF94_ALT_TYPE_SET 
MMFF94 3 CR 4 CR 27 CR 13 C5A 23 C5A 15 C5B 16 C5B 6 CB 7 CB 8 CB 9 CB \
10 CB 11 CB 17 CB 18 CB 19 CB 20 CB 21 CB 22 CB 28 CB \
29 CB 30 CB 31 CB 32 CB 33 CB 2 C=ON 24 C=ON 34 HC 35 HC \
36 HC 37 HC 39 HC 40 HC 41 HC 42 HC 43 HC 45 HC 46 HC \
47 HC 48 HC 49 HC 50 HC 52 HC 53 HC 54 HC 55 HC 56 HC \
57 HC 58 HC 38 HNCC 44 HNCC 51 HNCO 1 O=CN 25 O=CN 12 NC=O \
26 NC=O 5 NC=C 14 STHI 
