#	Name:			5a7b_ligand
#	Creating user name:	suminyi
#	Creation time:		Sun Sep 30 06:51:04 2018

#	Modifying user name:	suminyi
#	Modification time:	Sun Sep 30 06:51:04 2018

@<TRIPOS>MOLECULE
5a7b_ligand
   65    67     1     1     0
SMALL
MMFF94_CHARGES


@<TRIPOS>ATOM
      1 C          92.2910   93.4350  -41.0280 C.1       1 MOL        -0.1770 
      2 O          90.8160   89.7780  -49.1060 O.3       1 MOL        -0.3625 
      3 C01        91.4040   93.2910  -45.7820 C.ar      1 MOL         0.0730 
      4 C1         90.8240   95.5830  -45.2100 C.ar      1 MOL        -0.1435 
      5 N1         90.7370   98.1060  -44.9340 N.4       1 MOL        -0.9590 
      6 O1         91.1070   96.2950  -42.9230 O.3       1 MOL        -0.5325 
      7 C02        91.7660   93.0490  -44.4660 C.ar      1 MOL        -0.1500 
      8 C2         90.1860   96.8950  -45.6440 C.3       1 MOL         0.6465 
      9 N2         92.2360  102.2290  -44.0280 N.4       1 MOL        -0.9590 
     10 C03        89.7520   99.2480  -44.8690 C.3       1 MOL         0.5030 
     11 C3         90.9070   94.5440  -46.1430 C.ar      1 MOL        -0.1500 
     12 C04        91.5620   92.2270  -46.7390 C.1       1 MOL        -0.0730 
     13 C4         91.6750   94.0650  -43.5260 C.ar      1 MOL         0.0730 
     14 C05        91.7550   91.3080  -47.5180 C.1       1 MOL        -0.2000 
     15 C06        92.0340   90.1940  -48.4450 C.3       1 MOL         0.4800 
     16 C07        90.1460   90.5540  -50.0300 C.ar      1 MOL         0.0825 
     17 C7         91.2280   95.3370  -43.8900 C.ar      1 MOL         0.0825 
     18 C08        88.8560   90.1650  -50.3760 C.ar      1 MOL        -0.1500 
     19 C8         90.3070  100.4430  -44.0650 C.3       1 MOL         0.0000 
     20 C09        88.1280   90.8970  -51.3110 C.ar      1 MOL        -0.1500 
     21 C10        91.6440  100.9580  -44.6700 C.3       1 MOL         0.5030 
     22 C11        91.1730  103.2210  -43.5510 C.3       1 MOL         0.5030 
     23 C12        90.4230  103.9630  -44.6730 C.3       1 MOL         0.0000 
     24 C13        93.2180  101.9320  -42.8960 C.3       1 MOL         0.5030 
     25 C14        94.0020  103.1630  -42.4000 C.3       1 MOL         0.0000 
     26 C15        92.6370   99.7610  -44.7390 C.3       1 MOL         0.0000 
     27 C16        92.0680   98.5460  -45.4990 C.3       1 MOL         0.5030 
     28 C17        88.6940   92.0230  -51.9060 C.ar      1 MOL        -0.1500 
     29 C18        89.9870   92.4170  -51.5660 C.ar      1 MOL        -0.1500 
     30 C19        90.7140   91.6820  -50.6310 C.ar      1 MOL        -0.1500 
     31 C20        92.0090   93.7500  -42.1660 C.1       1 MOL        -0.0730 
     32 H1         92.5200   93.0870  -40.0530 H         1 MOL         0.1770 
     33 H2         90.8940   97.7510  -43.9530 H         1 MOL         0.4500 
     34 H3         91.2980   95.8490  -42.0620 H         1 MOL         0.4500 
     35 H4         92.0980   92.0570  -44.1650 H         1 MOL         0.1500 
     36 H5         89.1150   96.8380  -45.4280 H         1 MOL         0.0000 
     37 H6         90.3200   97.0440  -46.7200 H         1 MOL         0.0000 
     38 H7         92.8200  102.7020  -44.7520 H         1 MOL         0.4500 
     39 H8         88.8310   98.8800  -44.4000 H         1 MOL         0.0000 
     40 H9         89.5190   99.5520  -45.8950 H         1 MOL         0.0000 
     41 H10        90.5450   94.7000  -47.1550 H         1 MOL         0.1500 
     42 H11        92.7700   90.4910  -49.1880 H         1 MOL         0.0000 
     43 H12        92.4490   89.3540  -47.8900 H         1 MOL         0.0000 
     44 H13        88.4190   89.2850  -49.9090 H         1 MOL         0.1500 
     45 H14        90.4480  100.1540  -43.0190 H         1 MOL         0.0000 
     46 H15        89.5400  101.2200  -44.0800 H         1 MOL         0.0000 
     47 H16        87.1190   90.5840  -51.5780 H         1 MOL         0.1500 
     48 H17        91.4240  101.2560  -45.7000 H         1 MOL         0.0000 
     49 H18        91.6650  103.9650  -42.9190 H         1 MOL         0.0000 
     50 H19        90.4670  102.6790  -42.9130 H         1 MOL         0.0000 
     51 H20        89.6450  104.5980  -44.2370 H         1 MOL         0.0000 
     52 H21        89.9390  103.2740  -45.3670 H         1 MOL         0.0000 
     53 H22        91.1010  104.6100  -45.2340 H         1 MOL         0.0000 
     54 H23        93.9520  101.2140  -43.2770 H         1 MOL         0.0000 
     55 H24        92.6730  101.4610  -42.0730 H         1 MOL         0.0000 
     56 H25        94.8460  102.8430  -41.7830 H         1 MOL         0.0000 
     57 H26        93.3750  103.8190  -41.7920 H         1 MOL         0.0000 
     58 H27        94.4070  103.7370  -43.2380 H         1 MOL         0.0000 
     59 H28        92.8970   99.4290  -43.7290 H         1 MOL         0.0000 
     60 H29        93.5630  100.0750  -45.2180 H         1 MOL         0.0000 
     61 H30        91.9300   98.7770  -46.5600 H         1 MOL         0.0000 
     62 H31        92.7600   97.6970  -45.4220 H         1 MOL         0.0000 
     63 H32        88.1260   92.5890  -52.6410 H         1 MOL         0.1500 
     64 H33        90.4350   93.2890  -52.0390 H         1 MOL         0.1500 
     65 H34        91.7230   91.9940  -50.3850 H         1 MOL         0.1500 
@<TRIPOS>BOND
     1   31    1 3    
     2   15    2 1    
     3    2   16 1    
     4    3    7 ar   
     5   11    3 ar   
     6    3   12 1    
     7    8    4 1    
     8    4   11 ar   
     9    4   17 ar   
    10    5    8 1    
    11   10    5 1    
    12    5   27 1    
    13   17    6 1    
    14   13    7 ar   
    15   21    9 1    
    16    9   22 1    
    17    9   24 1    
    18   19   10 1    
    19   12   14 3    
    20   17   13 ar   
    21   13   31 1    
    22   14   15 1    
    23   16   18 ar   
    24   16   30 ar   
    25   18   20 ar   
    26   19   21 1    
    27   20   28 ar   
    28   21   26 1    
    29   22   23 1    
    30   24   25 1    
    31   26   27 1    
    32   28   29 ar   
    33   29   30 ar   
    34    1   32 1    
    35    5   33 1    
    36    6   34 1    
    37    7   35 1    
    38    8   36 1    
    39    8   37 1    
    40    9   38 1    
    41   10   39 1    
    42   10   40 1    
    43   11   41 1    
    44   15   42 1    
    45   15   43 1    
    46   18   44 1    
    47   19   45 1    
    48   19   46 1    
    49   20   47 1    
    50   21   48 1    
    51   22   49 1    
    52   22   50 1    
    53   23   51 1    
    54   23   52 1    
    55   23   53 1    
    56   24   54 1    
    57   24   55 1    
    58   25   56 1    
    59   25   57 1    
    60   25   58 1    
    61   26   59 1    
    62   26   60 1    
    63   27   61 1    
    64   27   62 1    
    65   28   63 1    
    66   29   64 1    
    67   30   65 1    
@<TRIPOS>SUBSTRUCTURE
     1 MOL         1 PERM              0 ****  ****    0 ROOT 
@<TRIPOS>NORMAL
@<TRIPOS>ALT_TYPE
MMFF94_ALT_TYPE_SET 
MMFF94 8 CR 10 CR 15 CR 19 CR 21 CR 22 CR 23 CR 24 CR 25 CR 26 CR 27 CR \
3 CB 4 CB 7 CB 11 CB 13 CB 16 CB 17 CB 18 CB 20 CB 28 CB \
29 CB 30 CB 1 CSP 12 CSP 14 CSP 31 CSP 32 HC 35 HC 36 HC \
37 HC 39 HC 40 HC 41 HC 42 HC 43 HC 44 HC 45 HC 46 HC \
47 HC 48 HC 49 HC 50 HC 51 HC 52 HC 53 HC 54 HC 55 HC \
56 HC 57 HC 58 HC 59 HC 60 HC 61 HC 62 HC 63 HC 64 HC \
65 HC 33 HNR+ 38 HNR+ 34 HOCC 2 OC=C 6 OC=C 5 NR+ 9 NR+ \

