#	Name:			4ddh_ligand
#	Creating user name:	suminyi
#	Creation time:		Sun Sep 30 06:51:16 2018

#	Modifying user name:	suminyi
#	Modification time:	Sun Sep 30 06:51:16 2018

@<TRIPOS>MOLECULE
4ddh_ligand
   24    25     1     1     0
SMALL
MMFF94_CHARGES


@<TRIPOS>ATOM
      1 O1         13.6350   10.8020   -0.2260 O.3       1 MOL        -0.2800 
      2 C2         14.0530   10.5440   -1.5090 C.ar      1 MOL         0.1400 
      3 C3         15.4160   10.4230   -1.5910 C.ar      1 MOL         0.0000 
      4 C4         15.9570   10.5780   -0.2860 C.2       1 MOL        -0.1810 
      5 C5         14.8300   10.7740    0.4820 C.2       1 MOL        -0.0100 
      6 C7         17.3190   10.2880    0.2840 C.3       1 MOL         0.0750 
      7 C10        18.4720   11.1470   -0.1520 C.2       1 MOL         0.9060 
      8 O11        19.5880   10.6460   -0.1060 O.co2     1 MOL        -0.9000 
      9 O12        18.2700   12.2700   -0.5690 O.co2     1 MOL        -0.9000 
     10 C14        16.0480   10.1260   -2.7900 C.ar      1 MOL        -0.1500 
     11 C16        15.2490    9.9350   -3.9230 C.ar      1 MOL        -0.1500 
     12 C18        13.8540   10.0130   -3.8350 C.ar      1 MOL         0.0825 
     13 C19        13.2440   10.3390   -2.6160 C.ar      1 MOL        -0.1500 
     14 O21        13.1150    9.7750   -4.9770 O.3       1 MOL        -0.3625 
     15 C22        11.7060    9.4450   -4.9240 C.3       1 MOL         0.2800 
     16 H1         14.7020   10.8400    1.5540 H         1 MOL         0.1500 
     17 H2         17.5720    9.2770   -0.0080 H         1 MOL         0.0000 
     18 H3         17.2820   10.3020    1.3750 H         1 MOL         0.0000 
     19 H4         17.1290   10.0510   -2.8410 H         1 MOL         0.1500 
     20 H5         15.7140    9.7170   -4.8820 H         1 MOL         0.1500 
     21 H6         12.1680   10.4290   -2.5120 H         1 MOL         0.1500 
     22 H7         11.3390    9.3300   -5.9420 H         1 MOL         0.0000 
     23 H8         11.1480   10.2490   -4.4420 H         1 MOL         0.0000 
     24 H9         11.5670    8.5100   -4.3740 H         1 MOL         0.0000 
@<TRIPOS>BOND
     1    1    2 1    
     2    1    5 1    
     3    2    3 ar   
     4    2   13 ar   
     5    3    4 1    
     6    3   10 ar   
     7    4    5 2    
     8    4    6 1    
     9    6    7 1    
    10    7    8 ar   
    11    7    9 ar   
    12   10   11 ar   
    13   11   12 ar   
    14   12   13 ar   
    15   12   14 1    
    16   14   15 1    
    17    5   16 1    
    18    6   17 1    
    19    6   18 1    
    20   10   19 1    
    21   11   20 1    
    22   13   21 1    
    23   15   22 1    
    24   15   23 1    
    25   15   24 1    
@<TRIPOS>SUBSTRUCTURE
     1 MOL         1 PERM              0 ****  ****    0 ROOT 
@<TRIPOS>NORMAL
@<TRIPOS>ALT_TYPE
MMFF94_ALT_TYPE_SET 
MMFF94 6 CR 15 CR 5 C5A 2 C5A 4 C5B 3 C5B 10 CB 11 CB 12 CB 13 CB 7 CO2M \
16 HC 17 HC 18 HC 19 HC 20 HC 21 HC 22 HC 23 HC 24 HC \
1 OFUR 8 O2CM 9 O2CM 14 OC=C 
