#	Name:			4ddk_ligand
#	Creating user name:	suminyi
#	Creation time:		Sun Sep 30 06:50:57 2018

#	Modifying user name:	suminyi
#	Modification time:	Sun Sep 30 06:50:57 2018

@<TRIPOS>MOLECULE
4ddk_ligand
   17    18     1     1     0
SMALL
MMFF94_CHARGES


@<TRIPOS>ATOM
      1 OAA       -15.4380    0.1430   -0.0900 O.co2     1 MOL        -0.9000 
      2 CAI       -15.8610    0.0910    1.0440 C.2       1 MOL         0.9790 
      3 OAB       -16.9830    0.4770    1.3490 O.co2     1 MOL        -0.9000 
      4 CAJ       -14.9560   -0.4100    2.1430 C.ar      1 MOL        -0.1790 
      5 CAE       -13.6250   -0.7800    1.8840 C.ar      1 MOL        -0.1500 
      6 CAL       -12.8240   -1.1610    2.9560 C.ar      1 MOL         0.0825 
      7 OAH       -11.5070   -1.5260    2.9410 O.3       1 MOL        -0.3625 
      8 CAF       -11.1070   -1.7170    4.3300 C.3       1 MOL         0.5600 
      9 OAG       -12.3230   -1.5360    5.1180 O.3       1 MOL        -0.3625 
     10 CAK       -13.3020   -1.1800    4.2400 C.ar      1 MOL         0.0825 
     11 CAD       -14.6120   -0.8410    4.5320 C.ar      1 MOL        -0.1500 
     12 CAC       -15.4320   -0.4660    3.4650 C.ar      1 MOL        -0.1500 
     13 H1        -13.2250   -0.7370    0.8730 H         1 MOL         0.1500 
     14 H2        -10.3680   -0.9500    4.6090 H         1 MOL         0.0000 
     15 H3        -10.7010   -2.7290    4.4800 H         1 MOL         0.0000 
     16 H4        -14.9780   -0.8420    5.5560 H         1 MOL         0.1500 
     17 H5        -16.4460   -0.1510    3.6560 H         1 MOL         0.1500 
@<TRIPOS>BOND
     1    1    2 ar   
     2    2    3 ar   
     3    2    4 1    
     4    4    5 ar   
     5    4   12 ar   
     6    5    6 ar   
     7    6    7 1    
     8    6   10 ar   
     9    7    8 1    
    10    8    9 1    
    11    9   10 1    
    12   10   11 ar   
    13   11   12 ar   
    14    5   13 1    
    15    8   14 1    
    16    8   15 1    
    17   11   16 1    
    18   12   17 1    
@<TRIPOS>SUBSTRUCTURE
     1 MOL         1 PERM              0 ****  ****    0 ROOT 
@<TRIPOS>NORMAL
@<TRIPOS>ALT_TYPE
MMFF94_ALT_TYPE_SET 
MMFF94 8 CR 4 CB 5 CB 6 CB 10 CB 11 CB 12 CB 2 CO2M 13 HC 14 HC 15 HC \
16 HC 17 HC 1 O2CM 3 O2CM 7 OC=C 9 OC=C 
