#	Name:			4eor_ligand
#	Creating user name:	suminyi
#	Creation time:		Sun Sep 30 06:51:01 2018

#	Modifying user name:	suminyi
#	Modification time:	Sun Sep 30 06:51:01 2018

@<TRIPOS>MOLECULE
4eor_ligand
   50    53     1     1     0
SMALL
MMFF94_CHARGES


@<TRIPOS>ATOM
      1 C2         -8.0210  -23.3330   24.3670 C.ar      1 MOL         0.7200 
      2 C8        -10.6650  -20.5860   22.3410 C.2       1 MOL         0.0365 
      3 C10        -5.0750  -21.3810   22.3960 C.3       1 MOL         0.2800 
      4 C11        -4.2510  -20.9410   21.1760 C.3       1 MOL         0.0000 
      5 C12        -4.8500  -21.5360   19.8790 C.3       1 MOL         0.0000 
      6 C13        -3.9850  -21.1850   18.6580 C.3       1 MOL         0.0000 
      7 C14        -2.5360  -21.6740   18.8420 C.3       1 MOL         0.0000 
      8 C15        -1.9240  -21.0940   20.1320 C.3       1 MOL         0.0000 
      9 C16        -2.7890  -21.4170   21.3650 C.3       1 MOL         0.0000 
     10 C19        -4.5160  -26.0080   23.8750 C.ar      1 MOL        -0.1500 
     11 C20        -4.0810  -26.6070   25.0560 C.ar      1 MOL        -0.0090 
     12 C21        -4.8280  -26.4580   26.2280 C.ar      1 MOL        -0.1500 
     13 C22        -6.0160  -25.7270   26.2110 C.ar      1 MOL        -0.1500 
     14 N26        -1.4740  -27.0320   24.1740 N.am      1 MOL        -0.9780 
     15 N1         -7.0620  -22.6360   23.7840 N.ar      1 MOL        -0.6200 
     16 C6         -7.4410  -21.6520   22.9710 C.ar      1 MOL         0.3925 
     17 O6         -6.4670  -20.9840   22.2510 O.3       1 MOL        -0.3625 
     18 C5         -8.7860  -21.3560   22.8240 C.ar      1 MOL         0.2272 
     19 N7         -9.3560  -20.3950   22.0820 N.2       1 MOL        -0.5653 
     20 N9        -10.8780  -21.6440   23.2020 N.pl3     1 MOL         0.0332 
     21 C4         -9.6810  -22.1250   23.5080 C.ar      1 MOL         0.1054 
     22 N3         -9.3400  -23.1390   24.3160 N.ar      1 MOL        -0.5670 
     23 N2         -7.6160  -24.4000   25.0590 N.pl3     1 MOL        -0.6000 
     24 C17        -6.4440  -25.1060   25.0430 C.ar      1 MOL         0.1000 
     25 C18        -5.6830  -25.2490   23.8810 C.ar      1 MOL        -0.1500 
     26 S23        -2.6580  -27.6660   25.0660 S.o2      1 MOL         1.4470 
     27 O24        -2.8360  -28.6450   24.0150 O.2       1 MOL        -0.6500 
     28 O25        -2.1520  -28.0460   26.3730 O.2       1 MOL        -0.6500 
     29 H1        -11.4640  -20.0110   21.9100 H         1 MOL         0.1500 
     30 H2         -4.6750  -20.9410   23.3130 H         1 MOL         0.0000 
     31 H3         -5.0060  -22.4710   22.4640 H         1 MOL         0.0000 
     32 H4         -4.2630  -19.8510   21.1080 H         1 MOL         0.0000 
     33 H5         -5.8640  -21.1620   19.7190 H         1 MOL         0.0000 
     34 H6         -4.9180  -22.6250   19.9670 H         1 MOL         0.0000 
     35 H7         -3.9930  -20.1050   18.4910 H         1 MOL         0.0000 
     36 H8         -4.4210  -21.6480   17.7760 H         1 MOL         0.0000 
     37 H9         -1.9390  -21.3710   17.9780 H         1 MOL         0.0000 
     38 H10        -2.5220  -22.7670   18.8830 H         1 MOL         0.0000 
     39 H11        -1.8490  -20.0140   20.0300 H         1 MOL         0.0000 
     40 H12        -0.9110  -21.4790   20.2710 H         1 MOL         0.0000 
     41 H13        -2.7720  -22.4970   21.5360 H         1 MOL         0.0000 
     42 H14        -2.3580  -20.9420   22.2480 H         1 MOL         0.0000 
     43 H15        -3.9600  -26.1370   22.9440 H         1 MOL         0.1500 
     44 H16        -4.5020  -26.9360   27.1540 H         1 MOL         0.1500 
     45 H17        -6.6090  -25.6370   27.1160 H         1 MOL         0.1500 
     46 H18        -1.6840  -27.4950   23.2740 H         1 MOL         0.4200 
     47 H19        -1.7880  -26.0940   24.0350 H         1 MOL         0.4200 
     48 H20       -11.7710  -21.9370   23.5860 H         1 MOL         0.2700 
     49 H21        -8.3560  -24.7740   25.6410 H         1 MOL         0.4000 
     50 H22        -6.0030  -24.7730   22.9610 H         1 MOL         0.1500 
@<TRIPOS>BOND
     1    1   15 ar   
     2    1   22 ar   
     3   23    1 1    
     4    2   19 2    
     5   20    2 1    
     6    3    4 1    
     7   17    3 1    
     8    4    5 1    
     9    4    9 1    
    10    5    6 1    
    11    6    7 1    
    12    8    7 1    
    13    9    8 1    
    14   11   10 ar   
    15   10   25 ar   
    16   12   11 ar   
    17   11   26 1    
    18   13   12 ar   
    19   24   13 ar   
    20   26   14 am   
    21   15   16 ar   
    22   16   17 1    
    23   16   18 ar   
    24   18   19 1    
    25   21   18 ar   
    26   21   20 1    
    27   22   21 ar   
    28   23   24 1    
    29   24   25 ar   
    30   26   27 2    
    31   26   28 2    
    32    2   29 1    
    33    3   30 1    
    34    3   31 1    
    35    4   32 1    
    36    5   33 1    
    37    5   34 1    
    38    6   35 1    
    39    6   36 1    
    40    7   37 1    
    41    7   38 1    
    42    8   39 1    
    43    8   40 1    
    44    9   41 1    
    45    9   42 1    
    46   10   43 1    
    47   12   44 1    
    48   13   45 1    
    49   14   46 1    
    50   14   47 1    
    51   20   48 1    
    52   23   49 1    
    53   25   50 1    
@<TRIPOS>SUBSTRUCTURE
     1 MOL         1 PERM              0 ****  ****    0 ROOT 
@<TRIPOS>NORMAL
@<TRIPOS>ALT_TYPE
MMFF94_ALT_TYPE_SET 
MMFF94 3 CR 4 CR 5 CR 6 CR 7 CR 8 CR 9 CR 2 C5A 21 C5A 18 C5B 1 CB 10 CB \
11 CB 12 CB 13 CB 16 CB 24 CB 25 CB 29 HC 30 HC 31 HC \
32 HC 33 HC 34 HC 35 HC 36 HC 37 HC 38 HC 39 HC 40 HC \
41 HC 42 HC 43 HC 44 HC 45 HC 50 HC 48 HPYL 49 HNCC 46 HNSO \
47 HNSO 27 O2S 28 O2S 17 OC=C 15 NPYD 22 NPYD 20 NPYL \
19 N5B 14 NSO2 23 NC=N 26 SO2N 
