#	Name:			4agq_ligand
#	Creating user name:	suminyi
#	Creation time:		Sun Sep 30 06:51:00 2018

#	Modifying user name:	suminyi
#	Modification time:	Sun Sep 30 06:51:00 2018

@<TRIPOS>MOLECULE
4agq_ligand
   64    66     1     1     0
SMALL
MMFF94_CHARGES


@<TRIPOS>ATOM
      1 C          90.8620   91.5860  -50.1980 C.ar      1 MOL        -0.1500 
      2 N          91.0280   89.7350  -48.6410 N.pl3     1 MOL        -0.8691 
      3 C01        91.4510   93.3350  -45.3150 C.ar      1 MOL         0.0730 
      4 C1         90.8060   95.6330  -44.8340 C.ar      1 MOL        -0.1435 
      5 N1         90.6950   98.1620  -44.6830 N.4       1 MOL        -0.9590 
      6 O1         91.0480   96.4380  -42.5760 O.3       1 MOL        -0.5325 
      7 C02        91.8210   93.1590  -43.9890 C.ar      1 MOL        -0.1500 
      8 C2         90.1320   96.9100  -45.3140 C.3       1 MOL         0.6465 
      9 N2         92.1120  102.3760  -44.1310 N.4       1 MOL        -0.9590 
     10 C03        89.6800   99.2810  -44.6050 C.3       1 MOL         0.5030 
     11 C3         90.9210   94.5600  -45.7270 C.ar      1 MOL        -0.1500 
     12 C04        91.6530   92.2550  -46.2420 C.1       1 MOL        -0.0730 
     13 C4         91.7100   94.2150  -43.0970 C.ar      1 MOL         0.0810 
     14 C05        91.8910   91.3360  -47.0170 C.1       1 MOL        -0.2000 
     15 C06        92.2190   90.2470  -47.9530 C.3       1 MOL         0.5691 
     16 C07        90.3080   90.4910  -49.5290 C.ar      1 MOL         0.1000 
     17 C7         91.2140   95.4520  -43.5050 C.ar      1 MOL         0.0825 
     18 C08        88.9770   90.1560  -49.7600 C.ar      1 MOL        -0.1500 
     19 C8         90.2500  100.5380  -43.9120 C.3       1 MOL         0.0000 
     20 C09        88.2030   90.9100  -50.6430 C.ar      1 MOL        -0.1500 
     21 C10        91.5220  101.0510  -44.6460 C.3       1 MOL         0.5030 
     22 C12        90.2340  103.9640  -44.9560 C.3       1 MOL         0.0000 
     23 C13        93.0700  102.1950  -42.9570 C.3       1 MOL         0.5030 
     24 C14        93.9480  103.4290  -42.6770 C.3       1 MOL         0.0000 
     25 C15        92.5510   99.8870  -44.7100 C.3       1 MOL         0.0000 
     26 C16        91.9700   98.6160  -45.3640 C.3       1 MOL         0.5030 
     27 C17        88.7600   92.0060  -51.3000 C.ar      1 MOL        -0.1500 
     28 C18        90.0920   92.3430  -51.0780 C.ar      1 MOL        -0.1500 
     29 I2         92.2960   93.8780  -41.1220 I         1 MOL        -0.0810 
     30 C11        91.0480  103.4120  -43.7700 C.3       1 MOL         0.5030 
     31 H1         91.8990   91.8610  -50.0490 H         1 MOL         0.1500 
     32 H2         90.5320   89.0030  -48.1350 H         1 MOL         0.4000 
     33 H3         90.9170   97.8490  -43.6990 H         1 MOL         0.4500 
     34 H4         91.0740   96.0100  -41.6870 H         1 MOL         0.4500 
     35 H5         92.1770   92.1930  -43.6430 H         1 MOL         0.1500 
     36 H6         89.0680   96.8540  -45.0600 H         1 MOL         0.0000 
     37 H7         90.2270   97.0060  -46.4010 H         1 MOL         0.0000 
     38 H8         92.7100  102.7750  -44.8890 H         1 MOL         0.4500 
     39 H9         88.8040   98.9160  -44.0530 H         1 MOL         0.0000 
     40 H10        89.3650   99.5220  -45.6260 H         1 MOL         0.0000 
     41 H11        90.5560   94.6560  -46.7450 H         1 MOL         0.1500 
     42 H12        92.9600   90.6040  -48.6730 H         1 MOL         0.0000 
     43 H13        92.6850   89.4380  -47.3840 H         1 MOL         0.0000 
     44 H14        88.5330   89.3080  -49.2460 H         1 MOL         0.1500 
     45 H15        90.4750  100.3150  -42.8650 H         1 MOL         0.0000 
     46 H16        89.4600  101.2920  -43.9130 H         1 MOL         0.0000 
     47 H17        87.1630   90.6410  -50.8200 H         1 MOL         0.1500 
     48 H18        91.2190  101.2730  -45.6740 H         1 MOL         0.0000 
     49 H19        89.4700  104.6550  -44.5880 H         1 MOL         0.0000 
     50 H20        89.7250  103.1690  -45.5040 H         1 MOL         0.0000 
     51 H21        90.8750  104.5150  -45.6470 H         1 MOL         0.0000 
     52 H22        93.7460  101.3670  -43.1940 H         1 MOL         0.0000 
     53 H23        92.4880  101.9190  -42.0720 H         1 MOL         0.0000 
     54 H24        94.7070  103.1860  -41.9290 H         1 MOL         0.0000 
     55 H25        93.3620  104.2670  -42.2960 H         1 MOL         0.0000 
     56 H26        94.4730  103.7490  -43.5820 H         1 MOL         0.0000 
     57 H27        92.8770   99.6180  -43.7010 H         1 MOL         0.0000 
     58 H28        93.4410  100.2040  -45.2550 H         1 MOL         0.0000 
     59 H29        91.7490   98.7950  -46.4220 H         1 MOL         0.0000 
     60 H30        92.6950   97.7950  -45.3020 H         1 MOL         0.0000 
     61 H31        88.1570   92.5900  -51.9920 H         1 MOL         0.1500 
     62 H32        90.5370   93.1890  -51.5960 H         1 MOL         0.1500 
     63 H33        91.5490  104.2490  -43.2770 H         1 MOL         0.0000 
     64 H34        90.3780  102.9590  -43.0310 H         1 MOL         0.0000 
@<TRIPOS>BOND
     1   16    1 ar   
     2    1   28 ar   
     3   15    2 1    
     4    2   16 1    
     5    3    7 ar   
     6   11    3 ar   
     7    3   12 1    
     8    8    4 1    
     9    4   11 ar   
    10    4   17 ar   
    11    5    8 1    
    12   10    5 1    
    13    5   26 1    
    14   17    6 1    
    15   13    7 ar   
    16   21    9 1    
    17    9   23 1    
    18    9   30 1    
    19   19   10 1    
    20   12   14 3    
    21   17   13 ar   
    22   13   29 1    
    23   14   15 1    
    24   16   18 ar   
    25   18   20 ar   
    26   19   21 1    
    27   20   27 ar   
    28   21   25 1    
    29   30   22 1    
    30   23   24 1    
    31   25   26 1    
    32   27   28 ar   
    33    1   31 1    
    34    2   32 1    
    35    5   33 1    
    36    6   34 1    
    37    7   35 1    
    38    8   36 1    
    39    8   37 1    
    40    9   38 1    
    41   10   39 1    
    42   10   40 1    
    43   11   41 1    
    44   15   42 1    
    45   15   43 1    
    46   18   44 1    
    47   19   45 1    
    48   19   46 1    
    49   20   47 1    
    50   21   48 1    
    51   22   49 1    
    52   22   50 1    
    53   22   51 1    
    54   23   52 1    
    55   23   53 1    
    56   24   54 1    
    57   24   55 1    
    58   24   56 1    
    59   25   57 1    
    60   25   58 1    
    61   26   59 1    
    62   26   60 1    
    63   27   61 1    
    64   28   62 1    
    65   30   63 1    
    66   30   64 1    
@<TRIPOS>SUBSTRUCTURE
     1 MOL         1 PERM              0 ****  ****    0 ROOT 
@<TRIPOS>NORMAL
@<TRIPOS>ALT_TYPE
MMFF94_ALT_TYPE_SET 
MMFF94 8 CR 10 CR 15 CR 19 CR 21 CR 22 CR 23 CR 24 CR 25 CR 26 CR 30 CR \
1 CB 3 CB 4 CB 7 CB 11 CB 13 CB 16 CB 17 CB 18 CB 20 CB \
27 CB 28 CB 12 CSP 14 CSP 31 HC 35 HC 36 HC 37 HC 39 HC \
40 HC 41 HC 42 HC 43 HC 44 HC 45 HC 46 HC 47 HC 48 HC \
49 HC 50 HC 51 HC 52 HC 53 HC 54 HC 55 HC 56 HC 57 HC \
58 HC 59 HC 60 HC 61 HC 62 HC 63 HC 64 HC 32 HNCC 33 HNR+ \
38 HNR+ 34 HOCC 6 OC=C 5 NR+ 9 NR+ 2 NC=C 29 I 
