#	Name:			1syi_ligand
#	Creating user name:	suminyi
#	Creation time:		Sun Sep 30 06:51:12 2018

#	Modifying user name:	suminyi
#	Modification time:	Sun Sep 30 06:51:12 2018

@<TRIPOS>MOLECULE
1syi_ligand
   30    31     1     1     0
SMALL
MMFF94_CHARGES


@<TRIPOS>ATOM
      1 C1         20.6040   14.6570   57.3980 C.3       1 MOL         0.3001 
      2 N1         20.8240   13.2200   57.3250 N.am      1 MOL        -0.4691 
      3 C2         22.1080   12.7930   57.3020 C.2       1 MOL         0.6900 
      4 N2         22.3080   11.4970   57.3960 N.am      1 MOL        -0.4900 
      5 C3         19.7620   12.3280   57.3820 C.2       1 MOL        -0.0292 
      6 O1         23.0830   13.5130   57.2140 O.2       1 MOL        -0.5700 
      7 C4         20.0460   11.0090   57.4880 C.2       1 MOL        -0.1238 
      8 C5         21.4190   10.5260   57.5130 C.2       1 MOL         0.6156 
      9 O2         21.8110    9.3900   57.6440 O.2       1 MOL        -0.5700 
     10 C6         18.2970   12.5820   57.3590 C.3       1 MOL         0.1382 
     11 C7         17.7100   11.2290   57.8170 C.3       1 MOL         0.0000 
     12 C8         18.8150   10.1590   57.5960 C.3       1 MOL         0.1382 
     13 C9         21.0400   15.1120   58.7990 C.3       1 MOL         0.3970 
     14 C10        21.3590   16.5920   58.7560 C.2       1 MOL         0.9060 
     15 O3         22.1950   17.0010   57.9790 O.co2     1 MOL        -0.9000 
     16 O4         20.9410   17.2880   59.6540 O.co2     1 MOL        -0.9000 
     17 N3         20.1280   14.5720   59.9120 N.4       1 MOL        -0.8530 
     18 H1         19.5560   14.9040   57.2290 H         1 MOL         0.0000 
     19 H2         21.2080   15.1410   56.6220 H         1 MOL         0.0000 
     20 H3         23.2680   11.2670   57.4430 H         1 MOL         0.3700 
     21 H4         17.9850   12.7880   56.3320 H         1 MOL         0.0000 
     22 H5         17.9840   13.3950   58.0160 H         1 MOL         0.0000 
     23 H6         16.8010   10.9970   57.2610 H         1 MOL         0.0000 
     24 H7         17.4630   11.2840   58.8810 H         1 MOL         0.0000 
     25 H8         18.8600    9.4580   58.4340 H         1 MOL         0.0000 
     26 H9         18.6390    9.6060   56.6690 H         1 MOL         0.0000 
     27 H10        22.0180   14.6660   59.0020 H         1 MOL         0.0000 
     28 H11        20.4930   14.8080   60.8540 H         1 MOL         0.4500 
     29 H12        20.0980   13.5150   59.9440 H         1 MOL         0.4500 
     30 H13        19.1440   14.9200   59.8870 H         1 MOL         0.4500 
@<TRIPOS>BOND
     1    1    2 1    
     2    1   13 1    
     3    2    3 am   
     4    2    5 1    
     5    3    4 am   
     6    3    6 2    
     7    4    8 am   
     8    5    7 2    
     9    5   10 1    
    10    7    8 1    
    11    7   12 1    
    12    8    9 2    
    13   10   11 1    
    14   11   12 1    
    15   13   14 1    
    16   13   17 1    
    17   14   15 ar   
    18   14   16 ar   
    19    1   18 1    
    20    1   19 1    
    21    4   20 1    
    22   10   21 1    
    23   10   22 1    
    24   11   23 1    
    25   11   24 1    
    26   12   25 1    
    27   12   26 1    
    28   13   27 1    
    29   17   28 1    
    30   17   29 1    
    31   17   30 1    
@<TRIPOS>SUBSTRUCTURE
     1 MOL         1 PERM              0 ****  ****    0 ROOT 
@<TRIPOS>NORMAL
@<TRIPOS>ALT_TYPE
MMFF94_ALT_TYPE_SET 
MMFF94 1 CR 10 CR 11 CR 12 CR 13 CR 14 CO2M 3 CONN 8 C=ON 5 C=C 7 C=C \
18 HC 19 HC 21 HC 22 HC 23 HC 24 HC 25 HC 26 HC 27 HC \
20 HNCO 28 HNR+ 29 HNR+ 30 HNR+ 15 O2CM 16 O2CM 6 O=CN \
9 O=CN 17 NR+ 2 NC=O 4 NC=O 
