#	Name:			1syi_ligand
#	Creating user name:	suminyi
#	Creation time:		Sun Sep 30 06:48:45 2018

#	Modifying user name:	suminyi
#	Modification time:	Sun Sep 30 06:48:45 2018

@<TRIPOS>MOLECULE
1syi_ligand
   30    31     1     1     0
SMALL
MMFF94_CHARGES


@<TRIPOS>ATOM
      1 C1         20.8260   14.5010   57.5680 C.3       1 CPW         0.3001 
      2 N1         20.8810   13.0440   57.5190 N.am      1 CPW        -0.4691 
      3 C2         22.2080   12.3740   57.4970 C.2       1 CPW         0.6900 
      4 N2         22.2400   11.0200   57.4930 N.am      1 CPW        -0.4900 
      5 C3         19.7250   12.2500   57.6040 C.2       1 CPW        -0.0292 
      6 O1         23.2100   13.1160   57.4860 O.2       1 CPW        -0.5700 
      7 C4         19.7900   10.8900   57.6220 C.2       1 CPW        -0.1238 
      8 C5         21.1160   10.2230   57.5340 C.2       1 CPW         0.6156 
      9 O2         21.1840    8.9800   57.4860 O.2       1 CPW        -0.5700 
     10 C6         18.2910   12.7570   57.6120 C.3       1 CPW         0.1382 
     11 C7         17.4400   11.4640   57.6990 C.3       1 CPW         0.0000 
     12 C8         18.4250   10.2590   57.6340 C.3       1 CPW         0.1382 
     13 C9         21.1450   15.0390   58.9950 C.3       1 CPW         0.3970 
     14 C10        21.5240   16.5440   58.8350 C.2       1 CPW         0.9060 
     15 O3         22.4710   16.8500   58.0640 O.co2     1 CPW        -0.9000 
     16 O4         20.8510   17.3600   59.5430 O.co2     1 CPW        -0.9000 
     17 N3         20.0300   14.7180   59.9580 N.4       1 CPW        -0.8530 
     18 H1         19.8167   14.8301   57.2798 H         1 CPW         0.0000 
     19 H2         21.5614   14.9101   56.8596 H         1 CPW         0.0000 
     20 H3         23.1330   10.5713   57.4582 H         1 CPW         0.3700 
     21 H4         18.0667   13.3119   56.6891 H         1 CPW         0.0000 
     22 H5         18.1095   13.4045   58.4825 H         1 CPW         0.0000 
     23 H6         16.7344   11.4198   56.8563 H         1 CPW         0.0000 
     24 H7         16.8815   11.4434   58.6464 H         1 CPW         0.0000 
     25 H8         18.3042    9.6100   58.5139 H         1 CPW         0.0000 
     26 H9         18.2602    9.6709   56.7191 H         1 CPW         0.0000 
     27 H10        22.0379   14.5172   59.3699 H         1 CPW         0.0000 
     28 H11        20.2613   15.0763   60.8713 H         1 CPW         0.4500 
     29 H12        19.9082   13.7187   60.0101 H         1 CPW         0.4500 
     30 H13        19.1751   15.1444   59.6365 H         1 CPW         0.4500 
@<TRIPOS>BOND
     1    1    2 1    
     2    1   13 1    
     3    2    3 am   
     4    2    5 1    
     5    3    4 am   
     6    3    6 2    
     7    4    8 am   
     8    5    7 2    
     9    5   10 1    
    10    7    8 1    
    11    7   12 1    
    12    8    9 2    
    13   10   11 1    
    14   11   12 1    
    15   13   14 1    
    16   13   17 1    
    17   14   15 ar   
    18   14   16 ar   
    19    1   18 1    
    20    1   19 1    
    21    4   20 1    
    22   10   21 1    
    23   10   22 1    
    24   11   23 1    
    25   11   24 1    
    26   12   25 1    
    27   12   26 1    
    28   13   27 1    
    29   17   28 1    
    30   17   29 1    
    31   17   30 1    
@<TRIPOS>SUBSTRUCTURE
     1 CPW         1 PERM              0 ****  ****    0 ROOT 
@<TRIPOS>NORMAL
@<TRIPOS>ALT_TYPE
MMFF94_ALT_TYPE_SET 
MMFF94 1 CR 10 CR 11 CR 12 CR 13 CR 14 CO2M 3 CONN 8 C=ON 5 C=C 7 C=C \
18 HC 19 HC 21 HC 22 HC 23 HC 24 HC 25 HC 26 HC 27 HC \
20 HNCO 28 HNR+ 29 HNR+ 30 HNR+ 15 O2CM 16 O2CM 6 O=CN \
9 O=CN 17 NR+ 2 NC=O 4 NC=O 
