#	Name:			1eby_ligand
#	Creating user name:	suminyi
#	Creation time:		Sun Sep 30 06:51:12 2018

#	Modifying user name:	suminyi
#	Modification time:	Sun Sep 30 06:51:12 2018

@<TRIPOS>MOLECULE
1eby_ligand
   88    93     1     1     0
SMALL
MMFF94_CHARGES


@<TRIPOS>ATOM
      1 C23         9.7110   24.5400    2.1560 C.ar      1 MOL        -0.1435 
      2 C24         8.9850   25.6670    1.7850 C.ar      1 MOL        -0.1500 
      3 C25         7.6020   25.6760    1.9260 C.ar      1 MOL        -0.1500 
      4 C26         6.9360   24.5830    2.4730 C.ar      1 MOL        -0.1500 
      5 C27         7.6610   23.4660    2.8670 C.ar      1 MOL        -0.1500 
      6 C28         9.0440   23.4400    2.6980 C.ar      1 MOL        -0.1500 
      7 C33        16.5870   22.3300    8.5220 C.ar      1 MOL        -0.1435 
      8 C34        15.7830   21.4640    9.2670 C.ar      1 MOL        -0.1500 
      9 C35        16.3260   20.3150    9.8390 C.ar      1 MOL        -0.1500 
     10 C36        17.6800   20.0320    9.6750 C.ar      1 MOL        -0.1500 
     11 C37        18.4810   20.8990    8.9330 C.ar      1 MOL        -0.1500 
     12 C38        17.9380   22.0430    8.3590 C.ar      1 MOL        -0.1500 
     13 C32        15.9860   23.5400    7.8240 C.3       1 MOL         0.4235 
     14 O31        14.8060   23.1250    7.1030 O.3       1 MOL        -0.5600 
     15 C9         15.0720   22.5920    5.7690 C.3       1 MOL         0.3410 
     16 C7         13.8700   22.8740    4.8370 C.3       1 MOL         0.2800 
     17 C5         13.3840   24.3460    4.9600 C.3       1 MOL         0.2800 
     18 C4         12.0560   24.6950    4.2560 C.3       1 MOL         0.3410 
     19 C2         10.8810   24.7440    5.2240 C.2       1 MOL         0.5690 
     20 O3         10.5730   23.8200    5.9610 O.2       1 MOL        -0.5700 
     21 N1         10.1600   25.8860    5.2130 N.am      1 MOL        -0.7301 
     22 O21        11.8250   23.8490    3.0900 O.3       1 MOL        -0.5600 
     23 C22        11.2170   24.5160    1.9670 C.3       1 MOL         0.4235 
     24 O6         14.3840   25.2390    4.4880 O.3       1 MOL        -0.6800 
     25 O8         14.2780   22.5540    3.4890 O.3       1 MOL        -0.6800 
     26 C10        15.3300   21.0980    5.8070 C.2       1 MOL         0.5690 
     27 O11        14.4290   20.2940    5.9920 O.2       1 MOL        -0.5700 
     28 N12        16.5950   20.6750    5.6120 N.am      1 MOL        -0.7301 
     29 C51        16.9050   19.2580    5.4020 C.3       1 MOL         0.4436 
     30 C52        16.8200   18.8520    3.9530 C.ar      1 MOL        -0.1435 
     31 C57        17.7830   17.9180    3.6490 C.ar      1 MOL        -0.1435 
     32 C53        15.9540   19.3440    2.9800 C.ar      1 MOL        -0.1500 
     33 C54        16.1050   18.8930    1.6700 C.ar      1 MOL        -0.1500 
     34 C55        17.1020   17.9620    1.3610 C.ar      1 MOL        -0.1500 
     35 C59        18.3280   18.7640    5.8130 C.3       1 MOL         0.2800 
     36 O60        19.3440   19.7530    5.5970 O.3       1 MOL        -0.6800 
     37 C56        17.9450   17.4570    2.3520 C.ar      1 MOL        -0.1500 
     38 C58        18.6160   17.5790    4.8570 C.3       1 MOL         0.1435 
     39 C41         8.9910   26.1140    6.0750 C.3       1 MOL         0.4436 
     40 C42         9.2980   26.7920    7.3940 C.ar      1 MOL        -0.1435 
     41 C47         8.2850   27.6560    7.7540 C.ar      1 MOL        -0.1435 
     42 C43        10.4250   26.6390    8.1980 C.ar      1 MOL        -0.1500 
     43 C44        10.5170   27.3920    9.3700 C.ar      1 MOL        -0.1500 
     44 C45         9.4920   28.2760    9.7280 C.ar      1 MOL        -0.1500 
     45 C49         7.8740   27.0310    5.4810 C.3       1 MOL         0.2800 
     46 O50         8.3990   28.0940    4.6660 O.3       1 MOL        -0.6800 
     47 C46         8.3610   28.4130    8.9180 C.ar      1 MOL        -0.1500 
     48 C48         7.1930   27.6750    6.7150 C.3       1 MOL         0.1435 
     49 H1          9.5040   26.5420    1.3980 H         1 MOL         0.1500 
     50 H2          7.0490   26.5430    1.6170 H         1 MOL         0.1500 
     51 H3          5.8570   24.6040    2.6050 H         1 MOL         0.1500 
     52 H4          7.1490   22.6200    3.3140 H         1 MOL         0.1500 
     53 H5          9.6150   22.5710    3.0140 H         1 MOL         0.1500 
     54 H6         14.7200   21.6730    9.3650 H         1 MOL         0.1500 
     55 H7         15.6860   19.6290   10.3880 H         1 MOL         0.1500 
     56 H8         18.1000   19.1290   10.1070 H         1 MOL         0.1500 
     57 H9         19.5220   20.6790    8.7580 H         1 MOL         0.1500 
     58 H10        18.5560   22.6950    7.7450 H         1 MOL         0.1500 
     59 H11        16.6900   24.0150    7.1330 H         1 MOL         0.0000 
     60 H12        15.6920   24.2990    8.5430 H         1 MOL         0.0000 
     61 H13        15.9480   23.0880    5.3410 H         1 MOL         0.0000 
     62 H14        13.0420   22.2240    5.1300 H         1 MOL         0.0000 
     63 H15        13.2470   24.5750    6.0210 H         1 MOL         0.0000 
     64 H16        12.1850   25.7140    3.9120 H         1 MOL         0.0000 
     65 H17        10.4480   26.6290    4.5860 H         1 MOL         0.3700 
     66 H18        11.6370   25.5220    1.8720 H         1 MOL         0.0000 
     67 H19        11.4720   23.9670    1.0610 H         1 MOL         0.0000 
     68 H20        14.6080   25.1440    3.5120 H         1 MOL         0.4000 
     69 H21        14.4530   23.4190    3.0100 H         1 MOL         0.4000 
     70 H22        17.3290   21.3610    5.4830 H         1 MOL         0.3700 
     71 H23        16.1820   18.6620    5.9580 H         1 MOL         0.0000 
     72 H24        15.2010   20.0920    3.2260 H         1 MOL         0.1500 
     73 H25        15.4720   19.3010    0.8840 H         1 MOL         0.1500 
     74 H26        17.2410   17.6580    0.3340 H         1 MOL         0.1500 
     75 H27        18.3390   18.4460    6.8580 H         1 MOL         0.0000 
     76 H28        20.2240   19.2870    5.6480 H         1 MOL         0.4000 
     77 H29        18.7320   16.7470    2.1140 H         1 MOL         0.1500 
     78 H30        19.6740   17.4780    4.6100 H         1 MOL         0.0000 
     79 H31        18.2650   16.6440    5.2980 H         1 MOL         0.0000 
     80 H32         8.5320   25.1440    6.2920 H         1 MOL         0.0000 
     81 H33        11.2300   25.9640    7.9100 H         1 MOL         0.1500 
     82 H34        11.4110   27.3100    9.9850 H         1 MOL         0.1500 
     83 H35         9.5930   28.8740   10.6300 H         1 MOL         0.1500 
     84 H36         7.1630   26.4370    4.8990 H         1 MOL         0.0000 
     85 H37         7.6610   28.7220    4.4730 H         1 MOL         0.4000 
     86 H38         7.5660   29.1100    9.1770 H         1 MOL         0.1500 
     87 H39         6.8300   28.6850    6.5150 H         1 MOL         0.0000 
     88 H40         6.3570   27.0560    7.0480 H         1 MOL         0.0000 
@<TRIPOS>BOND
     1    1    2 ar   
     2    1    6 ar   
     3   23    1 1    
     4    2    3 ar   
     5    3    4 ar   
     6    5    4 ar   
     7    6    5 ar   
     8    7    8 ar   
     9    7   12 ar   
    10   13    7 1    
    11    8    9 ar   
    12    9   10 ar   
    13   11   10 ar   
    14   12   11 ar   
    15   14   13 1    
    16   15   14 1    
    17   16   15 1    
    18   17   16 1    
    19   18   17 1    
    20   18   19 1    
    21   22   18 1    
    22   19   20 2    
    23   19   21 am   
    24   23   22 1    
    25   17   24 1    
    26   16   25 1    
    27   15   26 1    
    28   26   27 2    
    29   26   28 am   
    30   28   29 1    
    31   29   30 1    
    32   29   35 1    
    33   30   31 ar   
    34   30   32 ar   
    35   31   37 ar   
    36   31   38 1    
    37   32   33 ar   
    38   33   34 ar   
    39   34   37 ar   
    40   35   36 1    
    41   35   38 1    
    42   21   39 1    
    43   39   40 1    
    44   39   45 1    
    45   40   41 ar   
    46   40   42 ar   
    47   41   47 ar   
    48   41   48 1    
    49   42   43 ar   
    50   43   44 ar   
    51   44   47 ar   
    52   45   46 1    
    53   45   48 1    
    54    2   49 1    
    55    3   50 1    
    56    4   51 1    
    57    5   52 1    
    58    6   53 1    
    59    8   54 1    
    60    9   55 1    
    61   10   56 1    
    62   11   57 1    
    63   12   58 1    
    64   13   59 1    
    65   13   60 1    
    66   15   61 1    
    67   16   62 1    
    68   17   63 1    
    69   18   64 1    
    70   21   65 1    
    71   23   66 1    
    72   23   67 1    
    73   24   68 1    
    74   25   69 1    
    75   28   70 1    
    76   29   71 1    
    77   32   72 1    
    78   33   73 1    
    79   34   74 1    
    80   35   75 1    
    81   36   76 1    
    82   37   77 1    
    83   38   78 1    
    84   38   79 1    
    85   39   80 1    
    86   42   81 1    
    87   43   82 1    
    88   44   83 1    
    89   45   84 1    
    90   46   85 1    
    91   47   86 1    
    92   48   87 1    
    93   48   88 1    
@<TRIPOS>SUBSTRUCTURE
     1 MOL         1 PERM              0 ****  ****    0 ROOT 
@<TRIPOS>NORMAL
@<TRIPOS>ALT_TYPE
MMFF94_ALT_TYPE_SET 
MMFF94 13 CR 15 CR 16 CR 17 CR 18 CR 23 CR 29 CR 35 CR 38 CR 39 CR 45 CR \
48 CR 1 CB 2 CB 3 CB 4 CB 5 CB 6 CB 7 CB 8 CB 9 CB 10 CB \
11 CB 12 CB 30 CB 31 CB 32 CB 33 CB 34 CB 37 CB 40 CB \
41 CB 42 CB 43 CB 44 CB 47 CB 19 C=ON 26 C=ON 49 HC 50 HC \
51 HC 52 HC 53 HC 54 HC 55 HC 56 HC 57 HC 58 HC 59 HC \
60 HC 61 HC 62 HC 63 HC 64 HC 66 HC 67 HC 71 HC 72 HC \
73 HC 74 HC 75 HC 77 HC 78 HC 79 HC 80 HC 81 HC 82 HC \
83 HC 84 HC 86 HC 87 HC 88 HC 65 HNCO 70 HNCO 68 HOR \
69 HOR 76 HOR 85 HOR 20 O=CN 27 O=CN 14 OR 22 OR 24 OR \
25 OR 36 OR 46 OR 21 NC=O 28 NC=O 
