#	Name:			2fvd_ligand
#	Creating user name:	suminyi
#	Creation time:		Sun Sep 30 06:51:15 2018

#	Modifying user name:	suminyi
#	Modification time:	Sun Sep 30 06:51:15 2018

@<TRIPOS>MOLECULE
2fvd_ligand
   51    53     1     1     0
SMALL
MMFF94_CHARGES


@<TRIPOS>ATOM
      1 N1          5.8210   26.2820    7.1320 N.am      1 MOL        -0.8494 
      2 C2          5.2370   26.2500    5.7670 C.3       1 MOL         0.3557 
      3 C3          4.5420   27.5790    5.4000 C.3       1 MOL         0.0000 
      4 C4          3.5380   27.9670    6.4920 C.3       1 MOL         0.3691 
      5 C5          4.2850   28.1050    7.8260 C.3       1 MOL         0.0000 
      6 C6          4.9130   26.7600    8.1990 C.3       1 MOL         0.3557 
      7 N7          2.8340   29.2160    6.1720 N.pl3     1 MOL        -0.8691 
      8 C8          1.7420   29.5880    6.8630 C.ar      1 MOL         0.7200 
      9 N9          1.0880   28.6010    7.4580 N.ar      1 MOL        -0.6200 
     10 C10         0.0830   28.9500    8.2450 C.ar      1 MOL         0.1600 
     11 C11        -0.3210   30.2540    8.3530 C.ar      1 MOL         0.0862 
     12 C12         0.4200   31.1680    7.6470 C.ar      1 MOL         0.4100 
     13 N13         1.4850   30.8900    6.9050 N.ar      1 MOL        -0.6200 
     14 C14        -1.5810   30.5580    9.0800 C.2       1 MOL         0.3976 
     15 O15        -2.1740   31.5890    8.8390 O.2       1 MOL        -0.5700 
     16 C16        -2.1740   29.5220   10.0000 C.ar      1 MOL         0.0862 
     17 C17        -3.5310   29.1900    9.9030 C.ar      1 MOL         0.1900 
     18 C18        -4.0590   28.1550   10.6770 C.ar      1 MOL         0.1900 
     19 C19        -3.2740   27.4890   11.6050 C.ar      1 MOL        -0.1500 
     20 C20        -1.9410   27.8460   11.7490 C.ar      1 MOL        -0.1500 
     21 C21        -1.3900   28.8600   10.9570 C.ar      1 MOL         0.0825 
     22 O22        -0.0970   29.2890   11.1740 O.3       1 MOL        -0.3625 
     23 C23         0.7010   28.7960   12.2740 C.3       1 MOL         0.2800 
     24 F24        -4.3130   29.7650    8.9700 F         1 MOL        -0.1900 
     25 F25        -5.3170   27.7290   10.4970 F         1 MOL        -0.1900 
     26 N26         0.1410   32.4600    7.6890 N.pl3     1 MOL        -0.9000 
     27 S27         6.7520   25.0270    7.5700 S.o2      1 MOL         1.3328 
     28 C28         5.7260   23.7540    8.1670 C.3       1 MOL         0.1052 
     29 O29         7.6810   25.5700    8.5100 O.2       1 MOL        -0.6500 
     30 O30         7.3810   24.5080    6.3900 O.2       1 MOL        -0.6500 
     31 H1          4.5090   25.4360    5.7010 H         1 MOL         0.0000 
     32 H2          6.0230   26.0640    5.0270 H         1 MOL         0.0000 
     33 H3          4.0270   27.4720    4.4450 H         1 MOL         0.0000 
     34 H4          5.2920   28.3630    5.2900 H         1 MOL         0.0000 
     35 H5          2.8220   27.1430    6.5770 H         1 MOL         0.0000 
     36 H6          3.5910   28.3930    8.6160 H         1 MOL         0.0000 
     37 H7          5.0580   28.8740    7.7550 H         1 MOL         0.0000 
     38 H8          5.4700   26.8800    9.1320 H         1 MOL         0.0000 
     39 H9          4.1150   26.0310    8.3730 H         1 MOL         0.0000 
     40 H10         3.4260   30.0140    5.9490 H         1 MOL         0.4000 
     41 H11        -0.4510   28.1180    8.6970 H         1 MOL         0.1500 
     42 H12        -3.7000   26.7060   12.2300 H         1 MOL         0.1500 
     43 H13        -1.3530   27.3310   12.5060 H         1 MOL         0.1500 
     44 H14         1.6010   29.4020   12.3730 H         1 MOL         0.0000 
     45 H15         0.9710   27.7530   12.0840 H         1 MOL         0.0000 
     46 H16         0.1290   28.8700   13.2030 H         1 MOL         0.0000 
     47 H17         0.5750   33.0890    7.0280 H         1 MOL         0.4000 
     48 H18        -0.7810   32.6920    8.0390 H         1 MOL         0.4000 
     49 H19         6.3750   22.9160    8.4100 H         1 MOL         0.0000 
     50 H20         5.0240   23.4920    7.3770 H         1 MOL         0.0000 
     51 H21         5.2210   24.1200    9.0600 H         1 MOL         0.0000 
@<TRIPOS>BOND
     1    1    2 1    
     2    1    6 1    
     3    1   27 am   
     4    2    3 1    
     5    3    4 1    
     6    4    5 1    
     7    4    7 1    
     8    5    6 1    
     9    7    8 1    
    10    8    9 ar   
    11    8   13 ar   
    12    9   10 ar   
    13   10   11 ar   
    14   11   12 ar   
    15   11   14 1    
    16   12   13 ar   
    17   12   26 1    
    18   14   15 2    
    19   14   16 1    
    20   16   17 ar   
    21   16   21 ar   
    22   17   18 ar   
    23   17   24 1    
    24   18   19 ar   
    25   18   25 1    
    26   19   20 ar   
    27   20   21 ar   
    28   21   22 1    
    29   22   23 1    
    30   27   28 1    
    31   27   29 2    
    32   27   30 2    
    33    2   31 1    
    34    2   32 1    
    35    3   33 1    
    36    3   34 1    
    37    4   35 1    
    38    5   36 1    
    39    5   37 1    
    40    6   38 1    
    41    6   39 1    
    42    7   40 1    
    43   10   41 1    
    44   19   42 1    
    45   20   43 1    
    46   23   44 1    
    47   23   45 1    
    48   23   46 1    
    49   26   47 1    
    50   26   48 1    
    51   28   49 1    
    52   28   50 1    
    53   28   51 1    
@<TRIPOS>SUBSTRUCTURE
     1 MOL         1 PERM              0 ****  ****    0 ROOT 
@<TRIPOS>NORMAL
@<TRIPOS>ALT_TYPE
MMFF94_ALT_TYPE_SET 
MMFF94 2 CR 3 CR 4 CR 5 CR 6 CR 23 CR 28 CR 8 CB 10 CB 11 CB 12 CB 16 CB \
17 CB 18 CB 19 CB 20 CB 21 CB 14 C=OR 31 HC 32 HC 33 HC \
34 HC 35 HC 36 HC 37 HC 38 HC 39 HC 41 HC 42 HC 43 HC \
44 HC 45 HC 46 HC 49 HC 50 HC 51 HC 47 HNCC 48 HNCC 40 HNCN \
15 O=CR 29 O2S 30 O2S 22 OC=C 9 NPYD 13 NPYD 1 NSO2 \
7 NC=N 26 NC=N 27 SO2N 24 F 25 F 
