#	Name:			1o3f_ligand
#	Creating user name:	suminyi
#	Creation time:		Sun Sep 30 06:50:57 2018

#	Modifying user name:	suminyi
#	Modification time:	Sun Sep 30 06:50:57 2018

@<TRIPOS>MOLECULE
1o3f_ligand
   43    46     1     1     0
SMALL
MMFF94_CHARGES


@<TRIPOS>ATOM
      1 C1         44.2940   -3.3240   26.4360 C.ar      1 MOL        -0.0220 
      2 C2         44.7180   -1.9810   26.4850 C.ar      1 MOL        -0.1500 
      3 C3         44.6710   -1.2570   27.6710 C.ar      1 MOL        -0.1500 
      4 C4         44.1960   -1.9010   28.7930 C.ar      1 MOL        -0.1516 
      5 C5         43.8070   -3.2010   28.7930 C.ar      1 MOL         0.0000 
      6 C6         43.8350   -3.9480   27.6170 C.ar      1 MOL        -0.1500 
      7 C7         44.3130   -4.0360   25.1340 C.cat     1 MOL         0.7308 
      8 N1         43.7940   -5.2960   24.9680 N.pl3     1 MOL        -1.1924 
      9 N2         44.6480   -3.3920   23.9660 N.pl3     1 MOL        -1.1924 
     10 N3         43.9930   -1.3540   29.9910 N.pl3     1 MOL         0.0332 
     11 CN4        43.3650   -3.5190   30.1170 C.2       1 MOL        -0.1500 
     12 C8         43.4790   -2.3270   30.8300 C.2       1 MOL        -0.2046 
     13 C1'        43.1390   -2.1780   32.2380 C.ar      1 MOL         0.0530 
     14 C2'        43.0020   -3.2980   33.0670 C.ar      1 MOL        -0.1500 
     15 C3'        42.8090   -3.1480   34.4380 C.ar      1 MOL        -0.1500 
     16 C4'        42.7440   -1.8820   35.0110 C.ar      1 MOL        -0.1500 
     17 C5'        42.8430   -0.7430   34.2030 C.ar      1 MOL         0.0000 
     18 C6'        43.0060   -0.9000   32.8150 C.ar      1 MOL         0.0825 
     19 O6'        42.8820    0.2100   32.0370 O.3       1 MOL        -0.5325 
     20 C1''       42.8240    0.6170   34.8380 C.ar      1 MOL         0.0000 
     21 C2''       43.9480    1.4560   34.7340 C.ar      1 MOL        -0.1500 
     22 C3''       43.9540    2.7060   35.3510 C.ar      1 MOL        -0.1500 
     23 C4''       42.8340    3.1480   36.0470 C.ar      1 MOL        -0.1500 
     24 C5''       41.7160    2.3250   36.1560 C.ar      1 MOL        -0.1500 
     25 C6''       41.7100    1.0600   35.5690 C.ar      1 MOL        -0.1500 
     26 H1         45.0570   -1.4630   25.5920 H         1 MOL         0.1500 
     27 H2         44.9650   -0.2130   27.7170 H         1 MOL         0.1500 
     28 H3         43.4750   -4.9740   27.6230 H         1 MOL         0.1500 
     29 H4         44.2110   -5.8040   24.1820 H         1 MOL         0.6690 
     30 H5         43.7000   -5.8580   25.8080 H         1 MOL         0.6690 
     31 H6         45.3900   -2.7120   24.0690 H         1 MOL         0.6690 
     32 H7         44.8600   -4.0180   23.1840 H         1 MOL         0.6690 
     33 H8         44.1030   -0.3740   30.2150 H         1 MOL         0.2700 
     34 H9         42.9590   -4.4610   30.4640 H         1 MOL         0.1500 
     35 H10        43.0970   -4.3010   32.6630 H         1 MOL         0.1500 
     36 H11        42.7450   -4.0250   35.0780 H         1 MOL         0.1500 
     37 H12        42.6290   -1.7790   36.0890 H         1 MOL         0.1500 
     38 H13        41.9650    0.5390   32.2230 H         1 MOL         0.4500 
     39 H14        44.8340    1.1330   34.1920 H         1 MOL         0.1500 
     40 H15        44.8380    3.3350   35.2870 H         1 MOL         0.1500 
     41 H16        42.8220    4.1390   36.4970 H         1 MOL         0.1500 
     42 H17        40.8400    2.6810   36.6950 H         1 MOL         0.1500 
     43 H18        40.8270    0.4310   35.6680 H         1 MOL         0.1500 
@<TRIPOS>BOND
     1    1    2 ar   
     2    1    6 ar   
     3    1    7 1    
     4    2    3 ar   
     5    3    4 ar   
     6    4    5 ar   
     7    4   10 1    
     8    5    6 ar   
     9    5   11 1    
    10    7    8 ar   
    11    7    9 ar   
    12   10   12 1    
    13   11   12 2    
    14   12   13 1    
    15   13   14 ar   
    16   13   18 ar   
    17   14   15 ar   
    18   15   16 ar   
    19   16   17 ar   
    20   17   18 ar   
    21   17   20 1    
    22   18   19 1    
    23   20   21 ar   
    24   20   25 ar   
    25   21   22 ar   
    26   22   23 ar   
    27   23   24 ar   
    28   24   25 ar   
    29    2   26 1    
    30    3   27 1    
    31    6   28 1    
    32    8   29 1    
    33    8   30 1    
    34    9   31 1    
    35    9   32 1    
    36   10   33 1    
    37   11   34 1    
    38   14   35 1    
    39   15   36 1    
    40   16   37 1    
    41   19   38 1    
    42   21   39 1    
    43   22   40 1    
    44   23   41 1    
    45   24   42 1    
    46   25   43 1    
@<TRIPOS>SUBSTRUCTURE
     1 MOL         1 PERM              0 ****  ****    0 ROOT 
@<TRIPOS>NORMAL
@<TRIPOS>ALT_TYPE
MMFF94_ALT_TYPE_SET 
MMFF94 12 C5A 4 C5A 11 C5B 5 C5B 1 CB 2 CB 3 CB 6 CB 13 CB 14 CB 15 CB \
16 CB 17 CB 18 CB 20 CB 21 CB 22 CB 23 CB 24 CB 25 CB \
7 CNN+ 26 HC 27 HC 28 HC 34 HC 35 HC 36 HC 37 HC 39 HC \
40 HC 41 HC 42 HC 43 HC 33 HPYL 29 HN 30 HN 31 HN 32 HN \
38 HOCC 19 OC=C 10 NPYL 8 NCN+ 9 NCN+ 
