#	Name:			3ge7_ligand
#	Creating user name:	suminyi
#	Creation time:		Sun Sep 30 06:51:01 2018

#	Modifying user name:	suminyi
#	Modification time:	Sun Sep 30 06:51:01 2018

@<TRIPOS>MOLECULE
3ge7_ligand
   53    56     1     1     0
SMALL
MMFF94_CHARGES


@<TRIPOS>ATOM
      1 C2         18.0360   17.3070   23.1950 C.2       1 MOL         0.8268 
      2 O16        19.0560   17.7500   23.6780 O.2       1 MOL        -0.5700 
      3 N3         17.0200   16.9270   23.9670 N.am      1 MOL        -0.8597 
      4 C4         15.9570   16.1340   23.5200 C.cat     1 MOL         1.2000 
      5 N17        14.8970   16.2130   24.3130 N.pl3     1 MOL        -0.9667 
      6 N5         15.6970   16.2930   22.1540 N.pl3     1 MOL        -0.8277 
      7 C6         16.6440   16.6370   21.2350 C.ar      1 MOL         0.3110 
      8 C10        16.4290   16.5310   19.8460 C.ar      1 MOL        -0.1435 
      9 C18        15.1490   16.0270   19.2080 C.3       1 MOL         0.1435 
     10 C19        15.3380   14.5830   18.7070 C.3       1 MOL         0.5030 
     11 N20        14.3120   14.1540   17.6930 N.4       1 MOL        -0.9060 
     12 C21        12.9290   14.0170   18.2720 C.3       1 MOL         0.5030 
     13 C22        11.8340   14.1990   17.2040 C.3       1 MOL         0.0000 
     14 C26        11.7900   15.6390   16.6620 C.3       1 MOL         0.0000 
     15 C25        10.3650   15.8080   16.1190 C.3       1 MOL         0.0000 
     16 C24         9.4800   14.8920   16.9840 C.3       1 MOL         0.0000 
     17 C23        10.4200   13.9620   17.7660 C.3       1 MOL         0.0000 
     18 C9         17.4610   16.9270   18.9940 C.ar      1 MOL         0.2272 
     19 N11        17.4280   16.9660   17.6570 N.2       1 MOL        -0.5653 
     20 C12        18.6470   17.4640   17.3690 C.2       1 MOL         0.2705 
     21 N14        19.0710   17.7470   16.1220 N.pl3     1 MOL        -0.8531 
     22 C15        18.2110   17.6400   14.9460 C.3       1 MOL         0.3691 
     23 N13        19.4380   17.7010   18.4560 N.pl3     1 MOL         0.0332 
     24 C8         18.6470   17.3780   19.4850 C.ar      1 MOL        -0.1516 
     25 C7         18.8770   17.5290   20.8390 C.ar      1 MOL        -0.1500 
     26 C1         17.8580   17.1440   21.7250 C.ar      1 MOL         0.0862 
     27 H1         17.1230   17.0830   24.9730 H         1 MOL         0.4500 
     28 H2         14.0970   15.5860   24.1700 H         1 MOL         0.4500 
     29 H3         14.9700   16.5900   25.2700 H         1 MOL         0.4500 
     30 H4         14.7420   16.0370   21.8890 H         1 MOL         0.4500 
     31 H5         14.9110   16.6760   18.3610 H         1 MOL         0.0000 
     32 H6         14.3060   16.1130   19.8830 H         1 MOL         0.0000 
     33 H7         15.3180   13.8750   19.5390 H         1 MOL         0.0000 
     34 H8         16.3170   14.5130   18.2160 H         1 MOL         0.0000 
     35 H9         14.6020   13.2440   17.2170 H         1 MOL         0.4500 
     36 H10        14.3210   14.8150   16.9040 H         1 MOL         0.4500 
     37 H11        12.8070   14.7680   19.0580 H         1 MOL         0.0000 
     38 H12        12.8650   13.0260   18.7330 H         1 MOL         0.0000 
     39 H13        12.0070   13.5050   16.3750 H         1 MOL         0.0000 
     40 H14        12.5430   15.8140   15.8900 H         1 MOL         0.0000 
     41 H15        11.9530   16.3530   17.4760 H         1 MOL         0.0000 
     42 H16        10.3270   15.4800   15.0800 H         1 MOL         0.0000 
     43 H17        10.0410   16.8500   16.1570 H         1 MOL         0.0000 
     44 H18         8.8040   14.3070   16.3550 H         1 MOL         0.0000 
     45 H19         8.8830   15.4810   17.6820 H         1 MOL         0.0000 
     46 H20        10.3850   14.2160   18.8290 H         1 MOL         0.0000 
     47 H21        10.1080   12.9230   17.6500 H         1 MOL         0.0000 
     48 H22        19.9320   18.2900   16.0350 H         1 MOL         0.4000 
     49 H23        18.8240   17.5900   14.0410 H         1 MOL         0.0000 
     50 H24        17.5550   18.5130   14.8880 H         1 MOL         0.0000 
     51 H25        17.5910   16.7410   14.9940 H         1 MOL         0.0000 
     52 H26        20.4430   17.8450   18.4170 H         1 MOL         0.2700 
     53 H27        19.8060   17.9740   21.1770 H         1 MOL         0.1500 
@<TRIPOS>BOND
     1    1    2 2    
     2    1    3 am   
     3    1   26 1    
     4    3    4 ar   
     5    4    5 ar   
     6    4    6 ar   
     7    6    7 1    
     8    7    8 ar   
     9    7   26 ar   
    10    8    9 1    
    11    8   18 ar   
    12    9   10 1    
    13   10   11 1    
    14   11   12 1    
    15   12   13 1    
    16   13   14 1    
    17   13   17 1    
    18   14   15 1    
    19   15   16 1    
    20   16   17 1    
    21   18   19 1    
    22   18   24 ar   
    23   19   20 2    
    24   20   21 1    
    25   20   23 1    
    26   21   22 1    
    27   23   24 1    
    28   24   25 ar   
    29   25   26 ar   
    30    3   27 1    
    31    5   28 1    
    32    5   29 1    
    33    6   30 1    
    34    9   31 1    
    35    9   32 1    
    36   10   33 1    
    37   10   34 1    
    38   11   35 1    
    39   11   36 1    
    40   12   37 1    
    41   12   38 1    
    42   13   39 1    
    43   14   40 1    
    44   14   41 1    
    45   15   42 1    
    46   15   43 1    
    47   16   44 1    
    48   16   45 1    
    49   17   46 1    
    50   17   47 1    
    51   21   48 1    
    52   22   49 1    
    53   22   50 1    
    54   22   51 1    
    55   23   52 1    
    56   25   53 1    
@<TRIPOS>SUBSTRUCTURE
     1 MOL         1 PERM              0 ****  ****    0 ROOT 
@<TRIPOS>NORMAL
@<TRIPOS>ALT_TYPE
MMFF94_ALT_TYPE_SET 
MMFF94 9 CR 10 CR 12 CR 13 CR 14 CR 15 CR 16 CR 17 CR 22 CR 20 C5A 24 C5A \
18 C5B 7 CB 8 CB 25 CB 26 CB 4 CGD+ 1 C=OR 31 HC 32 HC \
33 HC 34 HC 37 HC 38 HC 39 HC 40 HC 41 HC 42 HC 43 HC \
44 HC 45 HC 46 HC 47 HC 49 HC 50 HC 51 HC 53 HC 52 HPYL \
27 HGD+ 28 HGD+ 29 HGD+ 30 HGD+ 48 HNCN 35 HNR+ 36 HNR+ \
2 O=CR 23 NPYL 19 N5B 11 NR+ 3 NGD+ 5 NGD+ 6 NGD+ 21 NC=N \

