#	Name:			5dwr_ligand
#	Creating user name:	suminyi
#	Creation time:		Sun Sep 30 06:48:38 2018

#	Modifying user name:	suminyi
#	Modification time:	Sun Sep 30 06:48:38 2018

@<TRIPOS>MOLECULE
5dwr_ligand
   56    59     1     1     0
SMALL
MMFF94_CHARGES


@<TRIPOS>ATOM
      1 C1        -40.9660   -1.8740    4.5420 C.3       1 MOL         0.0000 
      2 C2        -40.8620   -3.0170    5.5460 C.3       1 MOL         0.0000 
      3 C3        -40.7410   -4.4010    4.8800 C.3       1 MOL         0.5030 
      4 C11       -39.0090   -2.8770    0.4690 C.ar      1 MOL         0.1170 
      5 C12       -40.9940   -2.5110   -1.0020 C.2       1 MOL         0.5438 
      6 C13       -42.4570   -2.2000   -0.8760 C.ar      1 MOL         0.3962 
      7 C14       -43.2690   -2.2150   -2.0050 C.ar      1 MOL        -0.1500 
      8 C15       -44.6380   -2.1050   -1.8270 C.ar      1 MOL        -0.1500 
      9 C16       -45.1360   -1.9630   -0.5540 C.ar      1 MOL         0.1900 
     10 C17       -44.2610   -1.9200    0.5320 C.ar      1 MOL         0.3100 
     11 C18       -44.7350   -1.7710    1.9400 C.ar      1 MOL         0.0000 
     12 C19       -45.6500   -0.7960    2.3210 C.ar      1 MOL         0.1900 
     13 C20       -46.1530   -0.6720    3.5920 C.ar      1 MOL        -0.1500 
     14 C21       -45.7270   -1.5680    4.5600 C.ar      1 MOL        -0.1500 
     15 C22       -44.8000   -2.5500    4.2510 C.ar      1 MOL        -0.1500 
     16 C23       -44.3300   -2.6200    2.9600 C.ar      1 MOL         0.1900 
     17 F2        -43.3970   -3.5570    2.6630 F         1 MOL        -0.1900 
     18 F1        -46.0540    0.0830    1.3780 F         1 MOL        -0.1900 
     19 F         -46.4730   -1.8840   -0.3750 F         1 MOL        -0.1900 
     20 N3        -42.9350   -2.0310    0.3670 N.ar      1 MOL        -0.6200 
     21 O         -40.5010   -2.8530   -2.0760 O.2       1 MOL        -0.5700 
     22 N2        -40.3140   -2.4310    0.1650 N.am      1 MOL        -0.5470 
     23 C10       -37.9850   -2.8640   -0.4850 C.ar      1 MOL         0.1600 
     24 N1        -36.7290   -3.2430   -0.2500 N.ar      1 MOL        -0.6200 
     25 C9        -36.4530   -3.6660    0.9820 C.ar      1 MOL         0.1600 
     26 C8        -37.3800   -3.7140    2.0020 C.ar      1 MOL        -0.1500 
     27 C7        -38.6900   -3.3130    1.7630 C.ar      1 MOL        -0.1435 
     28 C5        -39.7190   -3.2860    2.8850 C.3       1 MOL         0.1435 
     29 C4        -39.5270   -4.3670    3.9490 C.3       1 MOL         0.0000 
     30 N         -40.5840   -5.4540    5.8860 N.4       1 MOL        -0.8530 
     31 C6        -39.7900   -1.9210    3.5720 C.3       1 MOL         0.0000 
     32 C         -41.0440   -0.5240    5.2440 C.3       1 MOL         0.0000 
     33 H1        -41.8925   -2.0091    3.9647 H         1 MOL         0.0000 
     34 H2        -41.7626   -3.0106    6.1776 H         1 MOL         0.0000 
     35 H3        -39.9733   -2.8519    6.1729 H         1 MOL         0.0000 
     36 H4        -41.6484   -4.6036    4.2922 H         1 MOL         0.0000 
     37 H5        -42.8421   -2.3102   -2.9969 H         1 MOL         0.1500 
     38 H6        -45.3071   -2.1305   -2.6795 H         1 MOL         0.1500 
     39 H7        -46.8663    0.1079    3.8330 H         1 MOL         0.1500 
     40 H8        -46.1224   -1.4998    5.5670 H         1 MOL         0.1500 
     41 H9        -44.4539   -3.2454    5.0071 H         1 MOL         0.1500 
     42 H10       -40.8049   -1.9943    0.9189 H         1 MOL         0.3700 
     43 H11       -38.2304   -2.5221   -1.4840 H         1 MOL         0.1500 
     44 H12       -35.4413   -3.9914    1.1956 H         1 MOL         0.1500 
     45 H13       -37.0887   -4.0629    2.9861 H         1 MOL         0.1500 
     46 H14       -40.6958   -3.4691    2.4136 H         1 MOL         0.0000 
     47 H15       -39.4152   -5.3455    3.4591 H         1 MOL         0.0000 
     48 H16       -38.6233   -4.1452    4.5356 H         1 MOL         0.0000 
     49 H17       -41.3904   -5.4638    6.4908 H         1 MOL         0.4500 
     50 H18       -39.7562   -5.2757    6.4327 H         1 MOL         0.4500 
     51 H19       -40.4975   -6.3472    5.4269 H         1 MOL         0.4500 
     52 H20       -38.8561   -1.7452    4.1260 H         1 MOL         0.0000 
     53 H21       -39.9173   -1.1380    2.8099 H         1 MOL         0.0000 
     54 H22       -41.8994   -0.5193    5.9356 H         1 MOL         0.0000 
     55 H23       -41.1733    0.2716    4.4955 H         1 MOL         0.0000 
     56 H24       -40.1157   -0.3497    5.8078 H         1 MOL         0.0000 
@<TRIPOS>BOND
     1    2    1 1    
     2    1   31 1    
     3    1   32 1    
     4    3    2 1    
     5   29    3 1    
     6    3   30 1    
     7    4   22 1    
     8    4   23 ar   
     9   27    4 ar   
    10    5    6 1    
    11    5   21 2    
    12   22    5 am   
    13    6    7 ar   
    14    6   20 ar   
    15    7    8 ar   
    16    8    9 ar   
    17   10    9 ar   
    18    9   19 1    
    19   10   11 1    
    20   20   10 ar   
    21   11   12 ar   
    22   11   16 ar   
    23   12   13 ar   
    24   12   18 1    
    25   13   14 ar   
    26   15   14 ar   
    27   16   15 ar   
    28   16   17 1    
    29   23   24 ar   
    30   25   24 ar   
    31   26   25 ar   
    32   27   26 ar   
    33   28   27 1    
    34   28   29 1    
    35   28   31 1    
    36    1   33 1    
    37    2   34 1    
    38    2   35 1    
    39    3   36 1    
    40    7   37 1    
    41    8   38 1    
    42   13   39 1    
    43   14   40 1    
    44   15   41 1    
    45   22   42 1    
    46   23   43 1    
    47   25   44 1    
    48   26   45 1    
    49   28   46 1    
    50   29   47 1    
    51   29   48 1    
    52   30   49 1    
    53   30   50 1    
    54   30   51 1    
    55   31   52 1    
    56   31   53 1    
    57   32   54 1    
    58   32   55 1    
    59   32   56 1    
@<TRIPOS>SUBSTRUCTURE
     1 MOL         1 PERM              0 ****  ****    0 ROOT 
@<TRIPOS>NORMAL
@<TRIPOS>ALT_TYPE
MMFF94_ALT_TYPE_SET 
MMFF94 1 CR 2 CR 3 CR 28 CR 29 CR 31 CR 32 CR 4 CB 6 CB 7 CB 8 CB 9 CB \
10 CB 11 CB 12 CB 13 CB 14 CB 15 CB 16 CB 23 CB 25 CB \
26 CB 27 CB 5 C=ON 33 HC 34 HC 35 HC 36 HC 37 HC 38 HC \
39 HC 40 HC 41 HC 43 HC 44 HC 45 HC 46 HC 47 HC 48 HC \
52 HC 53 HC 54 HC 55 HC 56 HC 42 HNCC 49 HNR+ 50 HNR+ \
51 HNR+ 21 O=CN 20 NPYD 24 NPYD 30 NR+ 22 NC=O 17 F \
18 F 19 F 
