#	Name:			5dwr_ligand
#	Creating user name:	suminyi
#	Creation time:		Sun Sep 30 06:51:01 2018

#	Modifying user name:	suminyi
#	Modification time:	Sun Sep 30 06:51:01 2018

@<TRIPOS>MOLECULE
5dwr_ligand
   56    59     1     1     0
SMALL
MMFF94_CHARGES


@<TRIPOS>ATOM
      1 C1        -40.8580   -1.9030    4.8500 C.3       1 MOL         0.0000 
      2 C2        -40.7140   -3.0540    5.8760 C.3       1 MOL         0.0000 
      3 C3        -40.6420   -4.4290    5.1810 C.3       1 MOL         0.5030 
      4 C11       -39.0710   -2.8470    0.6670 C.ar      1 MOL         0.1170 
      5 C12       -41.1440   -2.4640   -0.7050 C.2       1 MOL         0.5438 
      6 C13       -42.6070   -2.1140   -0.5720 C.ar      1 MOL         0.3962 
      7 C14       -43.4390   -2.1980   -1.6890 C.ar      1 MOL        -0.1500 
      8 C15       -44.8100   -2.0200   -1.5330 C.ar      1 MOL        -0.1500 
      9 C16       -45.3230   -1.7750   -0.2650 C.ar      1 MOL         0.1900 
     10 C17       -44.4360   -1.6570    0.8290 C.ar      1 MOL         0.3100 
     11 C18       -44.9020   -1.5370    2.2550 C.ar      1 MOL         0.0000 
     12 C19       -45.9460   -0.6650    2.6180 C.ar      1 MOL         0.1900 
     13 C20       -46.4160   -0.6200    3.9290 C.ar      1 MOL        -0.1500 
     14 C21       -45.8600   -1.4370    4.9090 C.ar      1 MOL        -0.1500 
     15 C22       -44.8180   -2.2930    4.5730 C.ar      1 MOL        -0.1500 
     16 C23       -44.3400   -2.3420    3.2680 C.ar      1 MOL         0.1900 
     17 F2        -43.3470   -3.2060    3.0050 F         1 MOL        -0.1900 
     18 F1        -46.4780    0.1940    1.7310 F         1 MOL        -0.1900 
     19 F         -46.6570   -1.7810   -0.1130 F         1 MOL        -0.1900 
     20 N3        -43.1030   -1.8020    0.6530 N.ar      1 MOL        -0.6200 
     21 O         -40.6450   -2.8260   -1.7500 O.2       1 MOL        -0.5700 
     22 N2        -40.4180   -2.3920    0.4300 N.am      1 MOL        -0.5470 
     23 C10       -38.1040   -2.8330   -0.3490 C.ar      1 MOL         0.1600 
     24 N1        -36.8260   -3.2260   -0.1740 N.ar      1 MOL        -0.6200 
     25 C9        -36.4990   -3.7160    1.0430 C.ar      1 MOL         0.1600 
     26 C8        -37.3910   -3.7580    2.1050 C.ar      1 MOL        -0.1500 
     27 C7        -38.7050   -3.3170    1.9370 C.ar      1 MOL        -0.1435 
     28 C5        -39.7050   -3.3310    3.0980 C.3       1 MOL         0.1435 
     29 C4        -39.4920   -4.4480    4.1510 C.3       1 MOL         0.0000 
     30 N         -40.5520   -5.5490    6.1710 N.4       1 MOL        -0.8530 
     31 C6        -39.7400   -1.9550    3.7890 C.3       1 MOL         0.0000 
     32 C         -40.8550   -0.5420    5.5510 C.3       1 MOL         0.0000 
     33 H1        -41.8160   -1.9970    4.3480 H         1 MOL         0.0000 
     34 H2        -41.5700   -3.0410    6.5590 H         1 MOL         0.0000 
     35 H3        -39.8160   -2.9030    6.4820 H         1 MOL         0.0000 
     36 H4        -41.5860   -4.5870    4.6440 H         1 MOL         0.0000 
     37 H5        -43.0200   -2.4440   -2.6620 H         1 MOL         0.1500 
     38 H6        -45.4850   -2.1350   -2.3730 H         1 MOL         0.1500 
     39 H7        -47.2260    0.0580    4.1860 H         1 MOL         0.1500 
     40 H8        -46.2310   -1.4080    5.9340 H         1 MOL         0.1500 
     41 H9        -44.3780   -2.9420    5.3330 H         1 MOL         0.1500 
     42 H10       -40.9680   -2.1670    1.2490 H         1 MOL         0.3700 
     43 H11       -38.3290   -2.4620   -1.3440 H         1 MOL         0.1500 
     44 H12       -35.4850   -4.0880    1.1550 H         1 MOL         0.1500 
     45 H13       -37.0360   -4.1670    3.0460 H         1 MOL         0.1500 
     46 H14       -40.6980   -3.5130    2.6840 H         1 MOL         0.0000 
     47 H15       -39.4570   -5.4220    3.6510 H         1 MOL         0.0000 
     48 H16       -38.5410   -4.3150    4.6710 H         1 MOL         0.0000 
     49 H17       -41.4260   -5.5730    6.7700 H         1 MOL         0.4500 
     50 H18       -39.7710   -5.5170    6.8370 H         1 MOL         0.4500 
     51 H19       -40.5630   -6.4770    5.6930 H         1 MOL         0.4500 
     52 H20       -38.7720   -1.7610    4.2540 H         1 MOL         0.0000 
     53 H21       -39.9040   -1.1710    3.0450 H         1 MOL         0.0000 
     54 H22       -41.6790   -0.4670    6.2650 H         1 MOL         0.0000 
     55 H23       -40.9500    0.2690    4.8260 H         1 MOL         0.0000 
     56 H24       -39.9170   -0.4300    6.0850 H         1 MOL         0.0000 
@<TRIPOS>BOND
     1    2    1 1    
     2    1   31 1    
     3    1   32 1    
     4    3    2 1    
     5   29    3 1    
     6    3   30 1    
     7    4   22 1    
     8    4   23 ar   
     9   27    4 ar   
    10    5    6 1    
    11    5   21 2    
    12   22    5 am   
    13    6    7 ar   
    14    6   20 ar   
    15    7    8 ar   
    16    8    9 ar   
    17   10    9 ar   
    18    9   19 1    
    19   10   11 1    
    20   20   10 ar   
    21   11   12 ar   
    22   11   16 ar   
    23   12   13 ar   
    24   12   18 1    
    25   13   14 ar   
    26   15   14 ar   
    27   16   15 ar   
    28   16   17 1    
    29   23   24 ar   
    30   25   24 ar   
    31   26   25 ar   
    32   27   26 ar   
    33   28   27 1    
    34   28   29 1    
    35   28   31 1    
    36    1   33 1    
    37    2   34 1    
    38    2   35 1    
    39    3   36 1    
    40    7   37 1    
    41    8   38 1    
    42   13   39 1    
    43   14   40 1    
    44   15   41 1    
    45   22   42 1    
    46   23   43 1    
    47   25   44 1    
    48   26   45 1    
    49   28   46 1    
    50   29   47 1    
    51   29   48 1    
    52   30   49 1    
    53   30   50 1    
    54   30   51 1    
    55   31   52 1    
    56   31   53 1    
    57   32   54 1    
    58   32   55 1    
    59   32   56 1    
@<TRIPOS>SUBSTRUCTURE
     1 MOL         1 PERM              0 ****  ****    0 ROOT 
@<TRIPOS>NORMAL
@<TRIPOS>ALT_TYPE
MMFF94_ALT_TYPE_SET 
MMFF94 1 CR 2 CR 3 CR 28 CR 29 CR 31 CR 32 CR 4 CB 6 CB 7 CB 8 CB 9 CB \
10 CB 11 CB 12 CB 13 CB 14 CB 15 CB 16 CB 23 CB 25 CB \
26 CB 27 CB 5 C=ON 33 HC 34 HC 35 HC 36 HC 37 HC 38 HC \
39 HC 40 HC 41 HC 43 HC 44 HC 45 HC 46 HC 47 HC 48 HC \
52 HC 53 HC 54 HC 55 HC 56 HC 42 HNCC 49 HNR+ 50 HNR+ \
51 HNR+ 21 O=CN 20 NPYD 24 NPYD 30 NR+ 22 NC=O 17 F \
18 F 19 F 
