#	Name:			4tmn_ligand
#	Creating user name:	suminyi
#	Creation time:		Sun Sep 30 06:48:43 2018

#	Modifying user name:	suminyi
#	Modification time:	Sun Sep 30 06:48:43 2018

@<TRIPOS>MOLECULE
4tmn_ligand
   68    69     1     1     0
SMALL
MMFF94_CHARGES


@<TRIPOS>ATOM
      1 C          50.4290   20.3870   -8.5740 C.2       1 MOL         0.7800 
      2 O          49.8980   21.2520   -7.7970 O.2       1 MOL        -0.5700 
      3 OA         50.7950   20.5820   -9.8890 O.3       1 MOL        -0.4300 
      4 CB         51.0060   21.9060  -10.4060 C.3       1 MOL         0.4235 
      5 CG         50.5090   21.7670  -11.8010 C.ar      1 MOL        -0.1435 
      6 CD1        50.4180   20.6180  -12.5940 C.ar      1 MOL        -0.1500 
      7 CD2        50.0170   22.8810  -12.3620 C.ar      1 MOL        -0.1500 
      8 CE1        49.8730   20.6070  -13.9050 C.ar      1 MOL        -0.1500 
      9 CE2        49.5010   22.7460  -13.6670 C.ar      1 MOL        -0.1500 
     10 CZ         49.3630   21.6920  -14.4780 C.ar      1 MOL        -0.1500 
     11 N          50.7810   19.1360   -8.2400 N.am      1 MOL        -0.7301 
     12 CA         50.6650   18.6430   -6.8390 C.3       1 MOL         0.3001 
     13 P          52.0320   19.1530   -6.0640 P.3       1 MOL         1.2380 
     14 OP1        53.3330   18.5400   -6.7090 O.co2     1 MOL        -0.9500 
     15 OP2        52.1080   20.7320   -5.9400 O.co2     1 MOL        -0.9500 
     16 CB         50.6690   17.1570   -6.9730 C.3       1 MOL         0.1435 
     17 CG         49.3730   16.7970   -7.6700 C.ar      1 MOL        -0.1435 
     18 CD1        48.2170   16.7880   -6.8790 C.ar      1 MOL        -0.1500 
     19 CD2        49.3280   16.5600   -9.0210 C.ar      1 MOL        -0.1500 
     20 CE1        46.9720   16.4870   -7.4460 C.ar      1 MOL        -0.1500 
     21 CE2        48.0930   16.2460   -9.6070 C.ar      1 MOL        -0.1500 
     22 CZ         46.9150   16.2080   -8.8060 C.ar      1 MOL        -0.1500 
     23 N          51.7070   18.5030   -4.3100 N.am      1 MOL        -1.1137 
     24 CA         52.9050   18.3320   -3.4760 C.3       1 MOL         0.4167 
     25 C          53.6360   16.9900   -3.6430 C.2       1 MOL         0.5690 
     26 O          54.8700   16.9190   -3.6050 O.2       1 MOL        -0.5700 
     27 CB         52.6060   18.4710   -1.9780 C.3       1 MOL         0.0000 
     28 CG         53.8370   18.3750   -1.1070 C.3       1 MOL         0.0000 
     29 CD1        54.6920   19.6480   -1.2450 C.3       1 MOL         0.0000 
     30 CD2        53.1860   18.1970    0.2480 C.3       1 MOL         0.0000 
     31 N          52.8650   15.9260   -3.7510 N.am      1 MOL        -0.7301 
     32 CA         53.3430   14.5330   -3.8630 C.3       1 MOL         0.1941 
     33 C          52.6830   13.8220   -5.0710 C.2       1 MOL         0.9060 
     34 O          51.6740   14.3100   -5.6210 O.co2     1 MOL        -0.9000 
     35 CB         53.0150   13.8090   -2.5700 C.3       1 MOL         0.0000 
     36 OXT        53.1340   12.7780   -5.6680 O.co2     1 MOL        -0.9000 
     37 H1         52.0712   22.1797  -10.3852 H         1 MOL         0.0000 
     38 H2         50.4244   22.6528   -9.8456 H         1 MOL         0.0000 
     39 H3         50.7842   19.6835  -12.1844 H         1 MOL         0.1500 
     40 H4         50.0160   23.8318  -11.8415 H         1 MOL         0.1500 
     41 H5         49.8730   19.6763  -14.4607 H         1 MOL         0.1500 
     42 H6         49.1478   23.6768  -14.0959 H         1 MOL         0.1500 
     43 H7         48.9026   21.7187  -15.4590 H         1 MOL         0.1500 
     44 H8         51.1290   18.5208   -8.9474 H         1 MOL         0.3700 
     45 H9         49.7572   19.0055   -6.3346 H         1 MOL         0.0000 
     46 H10        50.7136   16.6839   -5.9809 H         1 MOL         0.0000 
     47 H11        51.5300   16.8298   -7.5743 H         1 MOL         0.0000 
     48 H12        48.2863   17.0154   -5.8214 H         1 MOL         0.1500 
     49 H13        50.2281   16.6143   -9.6226 H         1 MOL         0.1500 
     50 H14        46.0745   16.4721   -6.8383 H         1 MOL         0.1500 
     51 H15        48.0347   16.0324  -10.6682 H         1 MOL         0.1500 
     52 H16        45.9640   15.9587   -9.2627 H         1 MOL         0.1500 
     53 H17        50.7876   18.2923   -3.9778 H         1 MOL         0.4200 
     54 H18        53.6029   19.1318   -3.7643 H         1 MOL         0.0000 
     55 H19        51.9096   17.6711   -1.6861 H         1 MOL         0.0000 
     56 H20        52.1334   19.4494   -1.8064 H         1 MOL         0.0000 
     57 H21        54.4535   17.5012   -1.3646 H         1 MOL         0.0000 
     58 H22        55.5830   19.5623   -0.6056 H         1 MOL         0.0000 
     59 H23        54.1008   20.5222   -0.9348 H         1 MOL         0.0000 
     60 H24        55.0031   19.7689   -2.2931 H         1 MOL         0.0000 
     61 H25        52.5991   17.2667    0.2534 H         1 MOL         0.0000 
     62 H26        52.5222   19.0504    0.4509 H         1 MOL         0.0000 
     63 H27        53.9635   18.1445    1.0243 H         1 MOL         0.0000 
     64 H28        51.8761   16.0742   -3.7576 H         1 MOL         0.3700 
     65 H29        54.4333   14.5362   -4.0085 H         1 MOL         0.0000 
     66 H30        53.3639   12.7678   -2.6341 H         1 MOL         0.0000 
     67 H31        51.9270   13.8218   -2.4084 H         1 MOL         0.0000 
     68 H32        53.5164   14.3126   -1.7304 H         1 MOL         0.0000 
@<TRIPOS>BOND
     1   23   24 1    
     2   24   27 1    
     3   24   25 1    
     4   25   26 2    
     5   27   28 1    
     6   28   29 1    
     7   28   30 1    
     8   31   32 1    
     9   32   35 1    
    10   32   33 1    
    11   33   34 ar   
    12   33   36 ar   
    13   25   31 am   
    14    1    2 2    
    15    1    3 1    
    16   11    1 am   
    17    3    4 1    
    18    4    5 1    
    19    5    6 ar   
    20    5    7 ar   
    21    6    8 ar   
    22    7    9 ar   
    23    8   10 ar   
    24    9   10 ar   
    25   12   11 1    
    26   13   12 1    
    27   12   16 1    
    28   13   14 ar   
    29   13   15 ar   
    30   13   23 am   
    31   16   17 1    
    32   17   18 ar   
    33   17   19 ar   
    34   18   20 ar   
    35   19   21 ar   
    36   20   22 ar   
    37   21   22 ar   
    38    4   37 1    
    39    4   38 1    
    40    6   39 1    
    41    7   40 1    
    42    8   41 1    
    43    9   42 1    
    44   10   43 1    
    45   11   44 1    
    46   12   45 1    
    47   16   46 1    
    48   16   47 1    
    49   18   48 1    
    50   19   49 1    
    51   20   50 1    
    52   21   51 1    
    53   22   52 1    
    54   23   53 1    
    55   24   54 1    
    56   27   55 1    
    57   27   56 1    
    58   28   57 1    
    59   29   58 1    
    60   29   59 1    
    61   29   60 1    
    62   30   61 1    
    63   30   62 1    
    64   30   63 1    
    65   31   64 1    
    66   32   65 1    
    67   35   66 1    
    68   35   67 1    
    69   35   68 1    
@<TRIPOS>SUBSTRUCTURE
     1 MOL         1 PERM              0 ****  ****    0 ROOT 
@<TRIPOS>NORMAL
@<TRIPOS>ALT_TYPE
MMFF94_ALT_TYPE_SET 
MMFF94 4 CR 12 CR 16 CR 24 CR 27 CR 28 CR 29 CR 30 CR 32 CR 35 CR 5 CB \
6 CB 7 CB 8 CB 9 CB 10 CB 17 CB 18 CB 19 CB 20 CB 21 CB \
22 CB 33 CO2M 1 COO 25 C=ON 37 HC 38 HC 39 HC 40 HC 41 HC \
42 HC 43 HC 45 HC 46 HC 47 HC 48 HC 49 HC 50 HC 51 HC \
52 HC 54 HC 55 HC 56 HC 57 HC 58 HC 59 HC 60 HC 61 HC \
62 HC 63 HC 65 HC 66 HC 67 HC 68 HC 44 HNCO 64 HNCO 53 HNPO \
34 O2CM 36 O2CM 2 O=CN 26 O=CN 14 O2P 15 O2P 3 OC=O \
23 NPO2 11 NC=O 31 NC=O 13 PO2 
