#	Name:			4tmn_ligand
#	Creating user name:	suminyi
#	Creation time:		Sun Sep 30 06:51:14 2018

#	Modifying user name:	suminyi
#	Modification time:	Sun Sep 30 06:51:14 2018

@<TRIPOS>MOLECULE
4tmn_ligand
   68    69     1     1     0
SMALL
MMFF94_CHARGES


@<TRIPOS>ATOM
      1 C          50.6640   20.6470   -8.6160 C.2       1 MOL         0.7800 
      2 O          50.3160   21.5820   -7.9340 O.2       1 MOL        -0.5700 
      3 OA         50.9760   20.6430   -9.9190 O.3       1 MOL        -0.4300 
      4 CB         51.0420   21.9220  -10.6050 C.3       1 MOL         0.4235 
      5 CG         50.5220   21.8330  -12.0330 C.ar      1 MOL        -0.1435 
      6 CD1        50.2090   20.6160  -12.6430 C.ar      1 MOL        -0.1500 
      7 CD2        50.3370   23.0190  -12.7460 C.ar      1 MOL        -0.1500 
      8 CE1        49.6850   20.5910  -13.9350 C.ar      1 MOL        -0.1500 
      9 CE2        49.7980   22.9970  -14.0280 C.ar      1 MOL        -0.1500 
     10 CZ         49.4640   21.7830  -14.6240 C.ar      1 MOL        -0.1500 
     11 N          50.7930   19.4010   -8.1730 N.am      1 MOL        -0.7301 
     12 CA         50.6420   18.9660   -6.7630 C.3       1 MOL         0.3001 
     13 P          51.9800   19.6000   -5.6560 P.3       1 MOL         1.2380 
     14 OP1        53.2450   19.0150   -6.2570 O.co2     1 MOL        -0.9500 
     15 OP2        53.0920   20.3740   -6.2880 O.co2     1 MOL        -0.9500 
     16 C3         50.4450   17.4210   -6.7300 C.3       1 MOL         0.1435 
     17 C6         49.2070   16.9530   -7.4830 C.ar      1 MOL        -0.1435 
     18 C8         47.9800   16.9120   -6.8190 C.ar      1 MOL        -0.1500 
     19 C10        49.2760   16.5500   -8.8180 C.ar      1 MOL        -0.1500 
     20 C12        46.8200   16.5430   -7.4960 C.ar      1 MOL        -0.1500 
     21 C13        48.1200   16.1570   -9.4920 C.ar      1 MOL        -0.1500 
     22 C14        46.8900   16.1680   -8.8360 C.ar      1 MOL        -0.1500 
     23 N1         52.0950   18.4090   -4.5590 N.am      1 MOL        -1.1137 
     24 C15        53.1750   18.2220   -3.5540 C.3       1 MOL         0.4167 
     25 C1         53.7220   16.7950   -3.6060 C.2       1 MOL         0.5690 
     26 O1         54.8970   16.5350   -3.4330 O.2       1 MOL        -0.5700 
     27 C4         52.6480   18.5070   -2.1230 C.3       1 MOL         0.0000 
     28 C7         53.7670   18.4600   -1.0440 C.3       1 MOL         0.0000 
     29 C9         54.6890   19.6980   -1.1290 C.3       1 MOL         0.0000 
     30 C11        53.1590   18.3150    0.3660 C.3       1 MOL         0.0000 
     31 N2         52.8110   15.8430   -3.8570 N.am      1 MOL        -0.7301 
     32 C16        53.0550   14.4130   -4.1460 C.3       1 MOL         0.1941 
     33 C2         52.0390   13.8440   -5.1570 C.2       1 MOL         0.9060 
     34 O2         51.3090   14.6390   -5.7260 O.co2     1 MOL        -0.9000 
     35 C5         53.0370   13.6240   -2.8160 C.3       1 MOL         0.0000 
     36 OXT        51.7340   12.6700   -5.0840 O.co2     1 MOL        -0.9000 
     37 H1         52.0830   22.2440  -10.6180 H         1 MOL         0.0000 
     38 H2         50.4540   22.6700  -10.0640 H         1 MOL         0.0000 
     39 H3         50.3720   19.6820  -12.1120 H         1 MOL         0.1500 
     40 H4         50.6080   23.9770  -12.3030 H         1 MOL         0.1500 
     41 H5         49.4400   19.6400  -14.3990 H         1 MOL         0.1500 
     42 H6         49.6390   23.9420  -14.5420 H         1 MOL         0.1500 
     43 H7         49.0360   21.7630  -15.6220 H         1 MOL         0.1500 
     44 H8         51.0060   18.7250   -8.8780 H         1 MOL         0.3700 
     45 H9         49.7480   19.4270   -6.3620 H         1 MOL         0.0000 
     46 H10        50.3310   17.0760   -5.7030 H         1 MOL         0.0000 
     47 H11        51.3330   16.9150   -7.1140 H         1 MOL         0.0000 
     48 H12        47.9300   17.1890   -5.7690 H         1 MOL         0.1500 
     49 H13        50.2310   16.5330   -9.3330 H         1 MOL         0.1500 
     50 H14        45.8660   16.5550   -6.9760 H         1 MOL         0.1500 
     51 H15        48.1770   15.8470  -10.5320 H         1 MOL         0.1500 
     52 H16        45.9890   15.8660   -9.3640 H         1 MOL         0.1500 
     53 H17        51.1700   18.2250   -4.1660 H         1 MOL         0.4200 
     54 H18        54.0160   18.8800   -3.7830 H         1 MOL         0.0000 
     55 H19        51.8790   17.7690   -1.8850 H         1 MOL         0.0000 
     56 H20        52.1620   19.4810   -2.0860 H         1 MOL         0.0000 
     57 H21        54.3850   17.5770   -1.1940 H         1 MOL         0.0000 
     58 H22        55.4590   19.6590   -0.3540 H         1 MOL         0.0000 
     59 H23        54.1190   20.6210   -1.0040 H         1 MOL         0.0000 
     60 H24        55.1990   19.7440   -2.0930 H         1 MOL         0.0000 
     61 H25        52.5710   17.3960    0.4350 H         1 MOL         0.0000 
     62 H26        52.5090   19.1560    0.5990 H         1 MOL         0.0000 
     63 H27        53.9480   18.2640    1.1210 H         1 MOL         0.0000 
     64 H28        51.8730   16.1660   -4.0720 H         1 MOL         0.3700 
     65 H29        54.0340   14.3080   -4.6190 H         1 MOL         0.0000 
     66 H30        53.3420   12.5880   -2.9770 H         1 MOL         0.0000 
     67 H31        52.0310   13.6250   -2.3890 H         1 MOL         0.0000 
     68 H32        53.7150   14.0690   -2.0900 H         1 MOL         0.0000 
@<TRIPOS>BOND
     1   23   24 1    
     2   24   27 1    
     3   24   25 1    
     4   25   26 2    
     5   27   28 1    
     6   28   29 1    
     7   28   30 1    
     8   31   32 1    
     9   32   35 1    
    10   32   33 1    
    11   33   34 ar   
    12   33   36 ar   
    13   25   31 am   
    14    1    2 2    
    15    1    3 1    
    16   11    1 am   
    17    3    4 1    
    18    4    5 1    
    19    5    6 ar   
    20    5    7 ar   
    21    6    8 ar   
    22    7    9 ar   
    23    8   10 ar   
    24    9   10 ar   
    25   12   11 1    
    26   13   12 1    
    27   12   16 1    
    28   13   14 ar   
    29   13   15 ar   
    30   13   23 am   
    31   16   17 1    
    32   17   18 ar   
    33   17   19 ar   
    34   18   20 ar   
    35   19   21 ar   
    36   20   22 ar   
    37   21   22 ar   
    38    4   37 1    
    39    4   38 1    
    40    6   39 1    
    41    7   40 1    
    42    8   41 1    
    43    9   42 1    
    44   10   43 1    
    45   11   44 1    
    46   12   45 1    
    47   16   46 1    
    48   16   47 1    
    49   18   48 1    
    50   19   49 1    
    51   20   50 1    
    52   21   51 1    
    53   22   52 1    
    54   23   53 1    
    55   24   54 1    
    56   27   55 1    
    57   27   56 1    
    58   28   57 1    
    59   29   58 1    
    60   29   59 1    
    61   29   60 1    
    62   30   61 1    
    63   30   62 1    
    64   30   63 1    
    65   31   64 1    
    66   32   65 1    
    67   35   66 1    
    68   35   67 1    
    69   35   68 1    
@<TRIPOS>SUBSTRUCTURE
     1 MOL         1 PERM              0 ****  ****    0 ROOT 
@<TRIPOS>NORMAL
@<TRIPOS>ALT_TYPE
MMFF94_ALT_TYPE_SET 
MMFF94 4 CR 12 CR 16 CR 24 CR 27 CR 28 CR 29 CR 30 CR 32 CR 35 CR 5 CB \
6 CB 7 CB 8 CB 9 CB 10 CB 17 CB 18 CB 19 CB 20 CB 21 CB \
22 CB 33 CO2M 1 COO 25 C=ON 37 HC 38 HC 39 HC 40 HC 41 HC \
42 HC 43 HC 45 HC 46 HC 47 HC 48 HC 49 HC 50 HC 51 HC \
52 HC 54 HC 55 HC 56 HC 57 HC 58 HC 59 HC 60 HC 61 HC \
62 HC 63 HC 65 HC 66 HC 67 HC 68 HC 44 HNCO 64 HNCO 53 HNPO \
34 O2CM 36 O2CM 2 O=CN 26 O=CN 14 O2P 15 O2P 3 OC=O \
23 NPO2 11 NC=O 31 NC=O 13 PO2 
