#	Name:			5tmn_ligand
#	Creating user name:	suminyi
#	Creation time:		Sun Sep 30 06:51:02 2018

#	Modifying user name:	suminyi
#	Modification time:	Sun Sep 30 06:51:02 2018

@<TRIPOS>MOLECULE
5tmn_ligand
   64    64     1     1     0
SMALL
MMFF94_CHARGES


@<TRIPOS>ATOM
      1 C          50.0750   18.4750   -9.2050 C.2       1 MOL         0.7800 
      2 O          50.4940   17.3660   -9.4500 O.2       1 MOL        -0.5700 
      3 OA         49.2800   19.2170   -9.9830 O.3       1 MOL        -0.4300 
      4 CB         48.8140   18.6050  -11.2100 C.3       1 MOL         0.4235 
      5 CG         47.4620   19.2060  -11.5480 C.ar      1 MOL        -0.1435 
      6 CD1        46.3910   19.0190  -10.6710 C.ar      1 MOL        -0.1500 
      7 CD2        47.2750   19.9430  -12.7190 C.ar      1 MOL        -0.1500 
      8 CE1        45.1490   19.5870  -10.9440 C.ar      1 MOL        -0.1500 
      9 CE2        46.0300   20.5070  -12.9940 C.ar      1 MOL        -0.1500 
     10 CZ         44.9730   20.3410  -12.1020 C.ar      1 MOL        -0.1500 
     11 N          50.3010   19.1160   -8.0580 N.am      1 MOL        -0.7301 
     12 CA         50.6450   18.4000   -6.8030 C.3       1 MOL         0.3001 
     13 P          52.0550   19.0420   -5.8750 P.3       1 MOL         1.2380 
     14 O1P        53.3810   18.5930   -6.4050 O.co2     1 MOL        -0.9500 
     15 O2P        53.0180   20.0630   -6.3880 O.co2     1 MOL        -0.9500 
     16 N1         51.9700   18.5400   -4.3470 N.am      1 MOL        -1.1137 
     17 C11        53.1220   18.2500   -3.4560 C.3       1 MOL         0.4167 
     18 C1         53.7040   16.8430   -3.6560 C.2       1 MOL         0.5690 
     19 O3         54.8940   16.5970   -3.5420 O.2       1 MOL        -0.5700 
     20 C3         52.6520   18.4570   -1.9960 C.3       1 MOL         0.0000 
     21 C5         53.7920   18.3140   -0.9540 C.3       1 MOL         0.0000 
     22 C7         54.7760   19.5040   -1.0320 C.3       1 MOL         0.0000 
     23 C9         53.2030   18.1740    0.4650 C.3       1 MOL         0.0000 
     24 N2         52.8020   15.9000   -3.9670 N.am      1 MOL        -0.7301 
     25 C12        53.0390   14.5000   -4.3860 C.3       1 MOL         0.1941 
     26 C2         51.9120   13.9930   -5.3140 C.2       1 MOL         0.9060 
     27 O4         51.1660   14.8440   -5.7790 O.co2     1 MOL        -0.9000 
     28 C4         53.2960   13.5670   -3.1640 C.3       1 MOL         0.0000 
     29 C6         52.0890   13.3730   -2.1940 C.3       1 MOL         0.0000 
     30 C8         52.2420   12.0420   -1.4270 C.3       1 MOL         0.0000 
     31 C10        51.9410   14.5240   -1.1730 C.3       1 MOL         0.0000 
     32 OXT        51.5830   12.8220   -5.2780 O.co2     1 MOL        -0.9000 
     33 H1         48.6930   17.5250  -11.0680 H         1 MOL         0.0000 
     34 H2         49.5550   18.7720  -11.9970 H         1 MOL         0.0000 
     35 H3         46.5340   18.4440   -9.7580 H         1 MOL         0.1500 
     36 H4         48.1020   20.0970  -13.4090 H         1 MOL         0.1500 
     37 H5         44.3210   19.4460  -10.2520 H         1 MOL         0.1500 
     38 H6         45.8870   21.0880  -13.9010 H         1 MOL         0.1500 
     39 H7         44.0130   20.8060  -12.3070 H         1 MOL         0.1500 
     40 H8         49.9410   20.0520   -8.0130 H         1 MOL         0.3700 
     41 H9         50.8820   17.3520   -7.0110 H         1 MOL         0.0000 
     42 H10        49.7880   18.4210   -6.1320 H         1 MOL         0.0000 
     43 H11        51.0680   18.1370   -4.0870 H         1 MOL         0.4200 
     44 H12        53.9310   18.9500   -3.6750 H         1 MOL         0.0000 
     45 H13        51.8580   17.7400   -1.7800 H         1 MOL         0.0000 
     46 H14        52.2030   19.4480   -1.8980 H         1 MOL         0.0000 
     47 H15        54.3510   17.4010   -1.1510 H         1 MOL         0.0000 
     48 H16        55.5400   19.4240   -0.2550 H         1 MOL         0.0000 
     49 H17        54.2520   20.4540   -0.9030 H         1 MOL         0.0000 
     50 H18        55.2900   19.5290   -1.9950 H         1 MOL         0.0000 
     51 H19        52.5750   17.2830    0.5300 H         1 MOL         0.0000 
     52 H20        52.5940   19.0410    0.7200 H         1 MOL         0.0000 
     53 H21        54.0010   18.0790    1.2050 H         1 MOL         0.0000 
     54 H22        51.8470   16.2080   -4.1070 H         1 MOL         0.3700 
     55 H23        53.9320   14.4840   -5.0140 H         1 MOL         0.0000 
     56 H24        54.1630   13.9290   -2.6090 H         1 MOL         0.0000 
     57 H25        53.5860   12.5930   -3.5680 H         1 MOL         0.0000 
     58 H26        51.1670   13.3100   -2.7780 H         1 MOL         0.0000 
     59 H27        51.3880   11.8790   -0.7650 H         1 MOL         0.0000 
     60 H28        53.1530   12.0410   -0.8250 H         1 MOL         0.0000 
     61 H29        52.2880   11.2040   -2.1260 H         1 MOL         0.0000 
     62 H30        51.7350   15.4700   -1.6650 H         1 MOL         0.0000 
     63 H31        52.8470   14.6320   -0.5770 H         1 MOL         0.0000 
     64 H32        51.1090   14.3280   -0.4940 H         1 MOL         0.0000 
@<TRIPOS>BOND
     1   16   17 1    
     2   17   20 1    
     3   17   18 1    
     4   18   19 2    
     5   20   21 1    
     6   21   22 1    
     7   21   23 1    
     8   24   25 1    
     9   25   28 1    
    10   25   26 1    
    11   26   27 ar   
    12   26   32 ar   
    13   28   29 1    
    14   29   30 1    
    15   29   31 1    
    16   18   24 am   
    17    1    2 2    
    18    1    3 1    
    19   11    1 am   
    20    3    4 1    
    21    4    5 1    
    22    5    6 ar   
    23    5    7 ar   
    24    6    8 ar   
    25    7    9 ar   
    26    8   10 ar   
    27    9   10 ar   
    28   12   11 1    
    29   13   12 1    
    30   13   14 ar   
    31   13   15 ar   
    32   13   16 am   
    33    4   33 1    
    34    4   34 1    
    35    6   35 1    
    36    7   36 1    
    37    8   37 1    
    38    9   38 1    
    39   10   39 1    
    40   11   40 1    
    41   12   41 1    
    42   12   42 1    
    43   16   43 1    
    44   17   44 1    
    45   20   45 1    
    46   20   46 1    
    47   21   47 1    
    48   22   48 1    
    49   22   49 1    
    50   22   50 1    
    51   23   51 1    
    52   23   52 1    
    53   23   53 1    
    54   24   54 1    
    55   25   55 1    
    56   28   56 1    
    57   28   57 1    
    58   29   58 1    
    59   30   59 1    
    60   30   60 1    
    61   30   61 1    
    62   31   62 1    
    63   31   63 1    
    64   31   64 1    
@<TRIPOS>SUBSTRUCTURE
     1 MOL         1 PERM              0 ****  ****    0 ROOT 
@<TRIPOS>NORMAL
@<TRIPOS>ALT_TYPE
MMFF94_ALT_TYPE_SET 
MMFF94 4 CR 12 CR 17 CR 20 CR 21 CR 22 CR 23 CR 25 CR 28 CR 29 CR 30 CR \
31 CR 5 CB 6 CB 7 CB 8 CB 9 CB 10 CB 26 CO2M 1 COO 18 C=ON \
33 HC 34 HC 35 HC 36 HC 37 HC 38 HC 39 HC 41 HC 42 HC \
44 HC 45 HC 46 HC 47 HC 48 HC 49 HC 50 HC 51 HC 52 HC \
53 HC 55 HC 56 HC 57 HC 58 HC 59 HC 60 HC 61 HC 62 HC \
63 HC 64 HC 40 HNCO 54 HNCO 43 HNPO 27 O2CM 32 O2CM 2 O=CN \
19 O=CN 14 O2P 15 O2P 3 OC=O 16 NPO2 11 NC=O 24 NC=O \
13 PO2 
