#	Name:			3arp_ligand
#	Creating user name:	suminyi
#	Creation time:		Sun Sep 30 06:50:55 2018

#	Modifying user name:	suminyi
#	Modification time:	Sun Sep 30 06:50:55 2018

@<TRIPOS>MOLECULE
3arp_ligand
   72    75     1     1     0
SMALL
MMFF94_CHARGES


@<TRIPOS>ATOM
      1 C1          8.8930   -8.1110   29.9510 C.ar      1 MOL        -0.1500 
      2 C2          8.1540   -9.0930   30.6110 C.ar      1 MOL        -0.1500 
      3 C3          7.5510   -8.8010   31.8290 C.ar      1 MOL        -0.1500 
      4 C4          7.6520   -7.5280   32.3730 C.ar      1 MOL        -0.1500 
      5 C5          9.0150   -6.8180   30.4880 C.ar      1 MOL         0.3610 
      6 C6          8.3570   -6.5200   31.6990 C.ar      1 MOL         0.0000 
      7 C7          8.3680   -5.2080   32.1710 C.ar      1 MOL         0.1000 
      8 C8          9.0220   -4.2300   31.4470 C.ar      1 MOL        -0.1500 
      9 C9          9.6890   -4.5550   30.2690 C.ar      1 MOL         0.2175 
     10 N1          9.7560   -5.8550   29.8360 N.ar      1 MOL        -0.0750 
     11 C10        19.9820  -10.2360   21.6510 C.ar      1 MOL         0.0000 
     12 C11        18.7550   -9.7560   22.1480 C.ar      1 MOL         0.3610 
     13 N2         17.5780   -9.9610   21.4490 N.ar      1 MOL        -0.2100 
     14 C12        17.6320  -10.5320   20.1980 C.ar      1 MOL         0.2175 
     15 C13        18.8400  -10.9960   19.6830 C.ar      1 MOL        -0.1500 
     16 C14        20.0080  -10.8630   20.4050 C.ar      1 MOL         0.1000 
     17 C15        21.1500  -10.0900   22.4170 C.ar      1 MOL        -0.1500 
     18 C16        21.1110   -9.4580   23.6560 C.ar      1 MOL        -0.1500 
     19 C17        19.9110   -8.9510   24.1370 C.ar      1 MOL        -0.1500 
     20 C18        18.7490   -9.0910   23.3870 C.ar      1 MOL        -0.1500 
     21 C19        16.2680   -9.6760   22.0720 C.3       1 MOL         0.4880 
     22 C20        15.8200   -8.2050   21.9000 C.3       1 MOL         0.0000 
     23 C21        14.8140   -7.7830   22.9940 C.3       1 MOL         0.0000 
     24 C22        13.5050   -8.6010   22.9260 C.3       1 MOL         0.0000 
     25 C23        12.5570   -8.2960   24.1040 C.3       1 MOL         0.0000 
     26 C24        11.8570   -6.9220   23.9880 C.3       1 MOL         0.0000 
     27 C25        10.7910   -6.7120   25.0890 C.3       1 MOL         0.0000 
     28 C26        11.3980   -6.6810   26.5100 C.3       1 MOL         0.1382 
     29 C27        10.3540   -6.4160   27.5700 C.2       1 MOL        -0.2882 
     30 C28        10.6850   -6.1740   28.8330 C.2       1 MOL         0.2030 
     31 C30        10.3690   -3.4470   29.4700 C.3       1 MOL         0.1435 
     32 C29        16.3770  -10.7620   19.3600 C.3       1 MOL         0.1435 
     33 N4          7.7000   -4.8260   33.2890 N.pl3     1 MOL        -0.9000 
     34 N3         21.1530  -11.3320   19.8440 N.pl3     1 MOL        -0.9000 
     35 H1          9.3380   -8.3670   28.9940 H         1 MOL         0.1500 
     36 H2          8.0320  -10.0820   30.1670 H         1 MOL         0.1500 
     37 H3          6.9620   -9.5520   32.3510 H         1 MOL         0.1500 
     38 H4          7.1340   -7.3430   33.3130 H         1 MOL         0.1500 
     39 H5          8.9910   -3.2000   31.7840 H         1 MOL         0.1500 
     40 H6          7.0500   -5.4850   33.7010 H         1 MOL         0.4000 
     41 H7         18.8530  -11.4490   18.6970 H         1 MOL         0.1500 
     42 H8         22.1020  -10.4840   22.0740 H         1 MOL         0.1500 
     43 H9         22.0170   -9.3660   24.2530 H         1 MOL         0.1500 
     44 H10        19.8720   -8.4590   25.1090 H         1 MOL         0.1500 
     45 H11        17.8370   -8.6830   23.8130 H         1 MOL         0.1500 
     46 H12        16.3170   -9.9250   23.1330 H         1 MOL         0.0000 
     47 H13        15.4960  -10.3380   21.6710 H         1 MOL         0.0000 
     48 H14        15.3750   -8.0710   20.9100 H         1 MOL         0.0000 
     49 H15        16.6900   -7.5460   21.9530 H         1 MOL         0.0000 
     50 H16        14.5870   -6.7210   22.8890 H         1 MOL         0.0000 
     51 H17        15.2760   -7.9150   23.9770 H         1 MOL         0.0000 
     52 H18        13.7380   -9.6670   22.9670 H         1 MOL         0.0000 
     53 H19        12.9950   -8.4270   21.9740 H         1 MOL         0.0000 
     54 H20        13.1240   -8.3640   25.0350 H         1 MOL         0.0000 
     55 H21        11.7890   -9.0720   24.1320 H         1 MOL         0.0000 
     56 H22        11.3630   -6.8570   23.0140 H         1 MOL         0.0000 
     57 H23        12.5900   -6.1140   24.0300 H         1 MOL         0.0000 
     58 H24        10.0400   -7.5050   25.0210 H         1 MOL         0.0000 
     59 H25        10.2780   -5.7670   24.8960 H         1 MOL         0.0000 
     60 H26        12.1710   -5.9070   26.5510 H         1 MOL         0.0000 
     61 H27        11.8730   -7.6400   26.7260 H         1 MOL         0.0000 
     62 H28         9.3130   -6.4150   27.2480 H         1 MOL         0.1500 
     63 H29        11.7180   -6.1290   29.1670 H         1 MOL         0.1500 
     64 H30        10.1620   -2.4660   29.8980 H         1 MOL         0.0000 
     65 H31        10.0170   -3.4470   28.4340 H         1 MOL         0.0000 
     66 H32        11.4530   -3.5850   29.4630 H         1 MOL         0.0000 
     67 H33        16.6230  -10.8270   18.2970 H         1 MOL         0.0000 
     68 H34        15.6490   -9.9570   19.4720 H         1 MOL         0.0000 
     69 H35        15.8910  -11.6960   19.6500 H         1 MOL         0.0000 
     70 H36         7.4440   -3.8520   33.3790 H         1 MOL         0.4000 
     71 H37        22.0100  -10.8660   20.0970 H         1 MOL         0.4000 
     72 H38        21.0880  -11.7250   18.9140 H         1 MOL         0.4000 
@<TRIPOS>BOND
     1    1    2 ar   
     2    5    1 ar   
     3    2    3 ar   
     4    4    3 ar   
     5    6    4 ar   
     6    5    6 ar   
     7   10    5 ar   
     8    6    7 ar   
     9    8    7 ar   
    10    7   33 1    
    11    9    8 ar   
    12   10    9 ar   
    13    9   31 1    
    14   30   10 1    
    15   12   11 ar   
    16   11   16 ar   
    17   11   17 ar   
    18   13   12 ar   
    19   12   20 ar   
    20   13   14 ar   
    21   21   13 1    
    22   14   15 ar   
    23   14   32 1    
    24   15   16 ar   
    25   16   34 1    
    26   17   18 ar   
    27   19   18 ar   
    28   20   19 ar   
    29   22   21 1    
    30   23   22 1    
    31   24   23 1    
    32   25   24 1    
    33   26   25 1    
    34   27   26 1    
    35   28   27 1    
    36   29   28 1    
    37   29   30 2    
    38    1   35 1    
    39    2   36 1    
    40    3   37 1    
    41    4   38 1    
    42    8   39 1    
    43   33   40 1    
    44   15   41 1    
    45   17   42 1    
    46   18   43 1    
    47   19   44 1    
    48   20   45 1    
    49   21   46 1    
    50   21   47 1    
    51   22   48 1    
    52   22   49 1    
    53   23   50 1    
    54   23   51 1    
    55   24   52 1    
    56   24   53 1    
    57   25   54 1    
    58   25   55 1    
    59   26   56 1    
    60   26   57 1    
    61   27   58 1    
    62   27   59 1    
    63   28   60 1    
    64   28   61 1    
    65   29   62 1    
    66   30   63 1    
    67   31   64 1    
    68   31   65 1    
    69   31   66 1    
    70   32   67 1    
    71   32   68 1    
    72   32   69 1    
    73   33   70 1    
    74   34   71 1    
    75   34   72 1    
@<TRIPOS>SUBSTRUCTURE
     1 MOL         1 PERM              0 ****  ****    0 ROOT 
@<TRIPOS>NORMAL
@<TRIPOS>ALT_TYPE
MMFF94_ALT_TYPE_SET 
MMFF94 21 CR 22 CR 23 CR 24 CR 25 CR 26 CR 27 CR 28 CR 31 CR 32 CR 1 CB \
2 CB 3 CB 4 CB 5 CB 6 CB 7 CB 8 CB 9 CB 11 CB 12 CB 14 CB \
15 CB 16 CB 17 CB 18 CB 19 CB 20 CB 29 C=C 30 C=C 35 HC \
36 HC 37 HC 38 HC 39 HC 41 HC 42 HC 43 HC 44 HC 45 HC \
46 HC 47 HC 48 HC 49 HC 50 HC 51 HC 52 HC 53 HC 54 HC \
55 HC 56 HC 57 HC 58 HC 59 HC 60 HC 61 HC 62 HC 63 HC \
64 HC 65 HC 66 HC 67 HC 68 HC 69 HC 40 HNCC 70 HNCC 71 HNCC \
72 HNCC 10 NPD+ 13 NPD+ 33 NC=C 34 NC=C 
