#	Name:			1r5y_ligand
#	Creating user name:	suminyi
#	Creation time:		Sun Sep 30 06:50:59 2018

#	Modifying user name:	suminyi
#	Modification time:	Sun Sep 30 06:50:59 2018

@<TRIPOS>MOLECULE
1r5y_ligand
   21    22     1     1     0
SMALL
MMFF94_CHARGES


@<TRIPOS>ATOM
      1 C6         18.3550   17.1580   19.2430 C.ar      1 MOL         0.1000 
      2 N4         19.2060   17.4770   18.2370 N.pl3     1 MOL        -0.9000 
      3 C1         17.1200   16.6160   18.9180 C.ar      1 MOL        -0.1500 
      4 C2         16.2080   16.3260   19.9270 C.ar      1 MOL        -0.1500 
      5 C3         16.5340   16.5690   21.2530 C.ar      1 MOL         0.1790 
      6 N3         15.5850   16.2960   22.1560 N.2       1 MOL        -0.6290 
      7 C8         15.9180   16.5170   23.4130 C.2       1 MOL         0.5600 
      8 N2         14.9780   16.2390   24.3030 N.pl3     1 MOL        -0.8500 
      9 N1         17.0870   17.0010   23.8670 N.am      1 MOL        -0.4900 
     10 C7         18.0710   17.2850   23.0360 C.2       1 MOL         0.5438 
     11 O1         19.1310   17.6750   23.4740 O.2       1 MOL        -0.5700 
     12 C4         17.7860   17.0800   21.5900 C.ar      1 MOL         0.0862 
     13 C5         18.7020   17.3830   20.5740 C.ar      1 MOL        -0.1500 
     14 H1         19.0850   16.9760   17.3670 H         1 MOL         0.4000 
     15 H2         20.1850   17.6980   18.4410 H         1 MOL         0.4000 
     16 H3         16.8520   16.4380   17.8820 H         1 MOL         0.1500 
     17 H4         15.2300   15.9110   19.6960 H         1 MOL         0.1500 
     18 H5         14.1930   15.6760   23.9580 H         1 MOL         0.4000 
     19 H6         15.0480   16.5270   25.2840 H         1 MOL         0.4000 
     20 H7         17.2190   17.1140   24.8620 H         1 MOL         0.3700 
     21 H8         19.6650   17.8240   20.8040 H         1 MOL         0.1500 
@<TRIPOS>BOND
     1    1    2 1    
     2    1    3 ar   
     3    1   13 ar   
     4    3    4 ar   
     5    4    5 ar   
     6    5    6 1    
     7    5   12 ar   
     8    6    7 2    
     9    7    8 1    
    10    7    9 am   
    11    9   10 am   
    12   10   11 2    
    13   10   12 1    
    14   12   13 ar   
    15    2   14 1    
    16    2   15 1    
    17    3   16 1    
    18    4   17 1    
    19    8   18 1    
    20    8   19 1    
    21    9   20 1    
    22   13   21 1    
@<TRIPOS>SUBSTRUCTURE
     1 MOL         1 PERM              0 ****  ****    0 ROOT 
@<TRIPOS>NORMAL
@<TRIPOS>ALT_TYPE
MMFF94_ALT_TYPE_SET 
MMFF94 1 CB 3 CB 4 CB 5 CB 12 CB 13 CB 7 CGD 10 C=ON 16 HC 17 HC 21 HC \
14 HNCC 15 HNCC 18 HNCN 19 HNCN 20 HNCN 11 O=CN 6 N=C \
9 NC=O 8 NC=N 2 NC=C 
