#	Name:			4jia_ligand
#	Creating user name:	suminyi
#	Creation time:		Sun Sep 30 06:51:01 2018

#	Modifying user name:	suminyi
#	Modification time:	Sun Sep 30 06:51:01 2018

@<TRIPOS>MOLECULE
4jia_ligand
   59    63     1     1     0
SMALL
MMFF94_CHARGES


@<TRIPOS>ATOM
      1 C24        16.1040  -20.3860  -22.1050 C.3       1 MOL         0.2800 
      2 O1         15.2670  -21.4370  -22.6470 O.3       1 MOL        -0.3625 
      3 C10        15.1720  -22.6890  -22.0650 C.ar      1 MOL         0.0825 
      4 C9         16.0700  -23.1610  -21.1020 C.ar      1 MOL        -0.1500 
      5 C8         15.9250  -24.4460  -20.5680 C.ar      1 MOL        -0.1500 
      6 C11        14.1220  -23.4990  -22.4720 C.ar      1 MOL        -0.1500 
      7 C12        13.9630  -24.7760  -21.9430 C.ar      1 MOL        -0.1500 
      8 C7         14.8680  -25.2760  -20.9870 C.ar      1 MOL         0.0000 
      9 C3         14.6590  -26.6490  -20.3990 C.ar      1 MOL         0.3610 
     10 C2         15.7170  -27.5640  -20.2060 C.ar      1 MOL        -0.1500 
     11 N1         13.3710  -27.0790  -20.0670 N.ar      1 MOL         0.3100 
     12 N2         12.2690  -26.2840  -19.9570 N.2       1 MOL        -0.3171 
     13 C6         11.3740  -27.1270  -19.5860 C.2       1 MOL         0.2705 
     14 N3         11.7910  -28.4120  -19.4430 N.pl3     1 MOL         0.0332 
     15 C4         13.1190  -28.3460  -19.7000 C.ar      1 MOL         0.1564 
     16 C5         14.1370  -29.2610  -19.4660 C.ar      1 MOL        -0.1500 
     17 C1         15.4490  -28.8610  -19.7400 C.ar      1 MOL        -0.1500 
     18 N4         10.0330  -26.9300  -19.4890 N.pl3     1 MOL        -0.5840 
     19 C13         9.2460  -25.9010  -19.9360 C.ar      1 MOL         0.1000 
     20 C18         9.7850  -24.7380  -20.4850 C.ar      1 MOL        -0.1500 
     21 C17         8.9770  -23.7020  -20.9080 C.ar      1 MOL        -0.1500 
     22 C16         7.5850  -23.7670  -20.8020 C.ar      1 MOL         0.1000 
     23 C15         7.0480  -24.9260  -20.2090 C.ar      1 MOL        -0.1500 
     24 C14         7.8650  -25.9770  -19.7840 C.ar      1 MOL        -0.1500 
     25 N5          6.7990  -22.7130  -21.2570 N.pl3     1 MOL        -0.8382 
     26 C22         7.4210  -21.4260  -21.6930 C.3       1 MOL         0.3691 
     27 C21         6.5600  -20.6670  -22.7170 C.3       1 MOL         0.5030 
     28 N6          5.1260  -20.4700  -22.2720 N.4       1 MOL        -0.9590 
     29 C23         4.3420  -19.7450  -23.3550 C.3       1 MOL         0.5030 
     30 C20         4.5590  -21.8560  -22.0180 C.3       1 MOL         0.5030 
     31 C19         5.3430  -22.6720  -20.9670 C.3       1 MOL         0.3691 
     32 H1         15.9260  -19.4640  -22.6640 H         1 MOL         0.0000 
     33 H2         17.1560  -20.6700  -22.2000 H         1 MOL         0.0000 
     34 H3         15.8560  -20.2250  -21.0520 H         1 MOL         0.0000 
     35 H4         16.8740  -22.5270  -20.7320 H         1 MOL         0.1500 
     36 H5         16.6170  -24.7750  -19.7940 H         1 MOL         0.1500 
     37 H6         13.4080  -23.1240  -23.1960 H         1 MOL         0.1500 
     38 H7         13.1260  -25.3810  -22.2840 H         1 MOL         0.1500 
     39 H8         16.7450  -27.2830  -20.4250 H         1 MOL         0.1500 
     40 H9         11.1910  -29.2060  -19.4040 H         1 MOL         0.2700 
     41 H10        13.9300  -30.2470  -19.0610 H         1 MOL         0.1500 
     42 H11        16.2690  -29.5660  -19.5940 H         1 MOL         0.1500 
     43 H12         9.5380  -27.5680  -18.8540 H         1 MOL         0.4000 
     44 H13        10.8460  -24.5700  -20.5770 H         1 MOL         0.1500 
     45 H14         9.5020  -22.8420  -21.2990 H         1 MOL         0.1500 
     46 H15         5.9850  -25.0430  -20.0310 H         1 MOL         0.1500 
     47 H16         7.4120  -26.8440  -19.3040 H         1 MOL         0.1500 
     48 H17         8.3660  -21.5790  -22.2150 H         1 MOL         0.0000 
     49 H18         7.6140  -20.7950  -20.8180 H         1 MOL         0.0000 
     50 H19         6.5440  -21.2450  -23.6460 H         1 MOL         0.0000 
     51 H20         7.0070  -19.6900  -22.9230 H         1 MOL         0.0000 
     52 H21         5.1470  -19.9410  -21.3790 H         1 MOL         0.4500 
     53 H22         3.2940  -19.6590  -23.0560 H         1 MOL         0.0000 
     54 H23         4.4110  -20.3200  -24.2840 H         1 MOL         0.0000 
     55 H24         4.7740  -18.7500  -23.5070 H         1 MOL         0.0000 
     56 H25         4.5900  -22.4000  -22.9660 H         1 MOL         0.0000 
     57 H26         3.5150  -21.7610  -21.7080 H         1 MOL         0.0000 
     58 H27         5.1870  -22.2480  -19.9700 H         1 MOL         0.0000 
     59 H28         4.9040  -23.6710  -20.9870 H         1 MOL         0.0000 
@<TRIPOS>BOND
     1    1    2 1    
     2    2    3 1    
     3    3    4 ar   
     4    3    6 ar   
     5    4    5 ar   
     6    5    8 ar   
     7    6    7 ar   
     8    7    8 ar   
     9    8    9 1    
    10    9   10 ar   
    11    9   11 ar   
    12   10   17 ar   
    13   11   12 1    
    14   11   15 ar   
    15   12   13 2    
    16   13   14 1    
    17   13   18 1    
    18   14   15 1    
    19   15   16 ar   
    20   16   17 ar   
    21   18   19 1    
    22   19   20 ar   
    23   19   24 ar   
    24   20   21 ar   
    25   21   22 ar   
    26   22   23 ar   
    27   22   25 1    
    28   23   24 ar   
    29   25   26 1    
    30   25   31 1    
    31   26   27 1    
    32   27   28 1    
    33   28   29 1    
    34   28   30 1    
    35   30   31 1    
    36    1   32 1    
    37    1   33 1    
    38    1   34 1    
    39    4   35 1    
    40    5   36 1    
    41    6   37 1    
    42    7   38 1    
    43   10   39 1    
    44   14   40 1    
    45   16   41 1    
    46   17   42 1    
    47   18   43 1    
    48   20   44 1    
    49   21   45 1    
    50   23   46 1    
    51   24   47 1    
    52   26   48 1    
    53   26   49 1    
    54   27   50 1    
    55   27   51 1    
    56   28   52 1    
    57   29   53 1    
    58   29   54 1    
    59   29   55 1    
    60   30   56 1    
    61   30   57 1    
    62   31   58 1    
    63   31   59 1    
@<TRIPOS>SUBSTRUCTURE
     1 MOL         1 PERM              0 ****  ****    0 ROOT 
@<TRIPOS>NORMAL
@<TRIPOS>ALT_TYPE
MMFF94_ALT_TYPE_SET 
MMFF94 1 CR 26 CR 27 CR 29 CR 30 CR 31 CR 13 C5A 15 C5A 3 CB 4 CB 5 CB \
6 CB 7 CB 8 CB 9 CB 10 CB 16 CB 17 CB 19 CB 20 CB 21 CB \
22 CB 23 CB 24 CB 32 HC 33 HC 34 HC 35 HC 36 HC 37 HC \
38 HC 39 HC 41 HC 42 HC 44 HC 45 HC 46 HC 47 HC 48 HC \
49 HC 50 HC 51 HC 53 HC 54 HC 55 HC 56 HC 57 HC 58 HC \
59 HC 40 HPYL 43 HNCC 52 HNR+ 2 OC=C 11 NPD+ 14 NPYL \
12 N5B 28 NR+ 18 NC=N 25 NC=C 
