#	Name:			4ogj_ligand
#	Creating user name:	suminyi
#	Creation time:		Sun Sep 30 06:51:04 2018

#	Modifying user name:	suminyi
#	Modification time:	Sun Sep 30 06:51:04 2018

@<TRIPOS>MOLECULE
4ogj_ligand
   74    77     1     1     0
SMALL
MMFF94_CHARGES


@<TRIPOS>ATOM
      1 CAQ        16.5040   40.6550   25.9980 C.3       1 MOL         0.5030 
      2 CAR        16.0700   39.4750   26.8690 C.3       1 MOL         0.0000 
      3 CAS        14.6480   39.8620   27.2990 C.3       1 MOL         0.0000 
      4 CAT        14.0850   40.6340   26.0930 C.3       1 MOL         0.5030 
      5 NAP        15.2610   41.1190   25.2740 N.4       1 MOL        -0.9590 
      6 CAO        15.2340   42.6110   24.9890 C.3       1 MOL         0.5030 
      7 CAN        16.4020   43.0690   24.0970 C.3       1 MOL         0.2800 
      8 OAM        16.5460   42.0530   23.0850 O.3       1 MOL        -0.3625 
      9 CAJ        17.6460   41.9530   22.2640 C.ar      1 MOL         0.0825 
     10 CAK        18.6210   42.9460   22.1630 C.ar      1 MOL        -0.1500 
     11 CAL        19.7220   42.7530   21.3270 C.ar      1 MOL        -0.1500 
     12 CAI        17.7620   40.7960   21.5080 C.ar      1 MOL        -0.1500 
     13 CAH        18.8400   40.6210   20.6510 C.ar      1 MOL        -0.1500 
     14 CAG        19.8520   41.5790   20.5850 C.ar      1 MOL         0.1000 
     15 NAF        20.9550   41.4060   19.7950 N.pl3     1 MOL        -0.6000 
     16 C2         21.5600   40.2970   19.3310 C.ar      1 MOL         0.7200 
     17 N3         21.2480   39.1430   19.9090 N.ar      1 MOL        -0.6200 
     18 N1         22.4350   40.4980   18.3540 N.ar      1 MOL        -0.6200 
     19 C6         23.0240   39.3910   17.8810 C.ar      1 MOL         0.1600 
     20 C5         22.7390   38.1270   18.3740 C.ar      1 MOL        -0.1435 
     21 CAA        23.4690   36.9050   17.8240 C.3       1 MOL         0.1435 
     22 C4         21.8040   38.0620   19.3920 C.ar      1 MOL         0.4100 
     23 NAW        21.4710   36.8640   19.9440 N.pl3     1 MOL        -0.6000 
     24 CAX        20.6440   36.4290   20.9620 C.ar      1 MOL         0.1000 
     25 CBC        19.9190   37.2600   21.8320 C.ar      1 MOL        -0.1500 
     26 CAY        20.5820   35.0510   21.1640 C.ar      1 MOL        -0.1500 
     27 CAZ        19.8860   34.5120   22.2450 C.ar      1 MOL        -0.1500 
     28 CBA        19.2190   35.3490   23.1360 C.ar      1 MOL        -0.1500 
     29 CBB        19.2190   36.7280   22.9270 C.ar      1 MOL        -0.0090 
     30 SBD        18.3460   37.7890   24.0770 S.o2      1 MOL         1.4470 
     31 OBJ        18.1670   37.2660   25.4220 O.2       1 MOL        -0.6500 
     32 OBK        17.2160   38.4530   23.4540 O.2       1 MOL        -0.6500 
     33 NBE        19.1030   39.2590   24.1720 N.am      1 MOL        -0.9137 
     34 CBF        20.4360   39.4610   24.7740 C.3       1 MOL         0.3557 
     35 CBH        21.4680   38.3500   24.4800 C.3       1 MOL         0.0000 
     36 CBI        20.2700   39.6120   26.3000 C.3       1 MOL         0.0000 
     37 CBG        20.9730   40.7890   24.2040 C.3       1 MOL         0.0000 
     38 H          17.2760   40.3790   25.2710 H         1 MOL         0.0000 
     39 H1         16.8630   41.4760   26.6240 H         1 MOL         0.0000 
     40 H2         16.7450   39.3140   27.7130 H         1 MOL         0.0000 
     41 H3         16.0410   38.5640   26.2640 H         1 MOL         0.0000 
     42 H4         14.6940   40.5270   28.1660 H         1 MOL         0.0000 
     43 H5         14.0390   38.9930   27.5590 H         1 MOL         0.0000 
     44 H6         13.4780   41.4860   26.4140 H         1 MOL         0.0000 
     45 H7         13.4820   39.9770   25.4570 H         1 MOL         0.0000 
     46 H8         15.2760   40.6490   24.3330 H         1 MOL         0.4500 
     47 H9         15.2350   43.1540   25.9370 H         1 MOL         0.0000 
     48 H10        14.2960   42.8150   24.4640 H         1 MOL         0.0000 
     49 H11        17.3250   43.1290   24.6810 H         1 MOL         0.0000 
     50 H12        16.1910   44.0360   23.6270 H         1 MOL         0.0000 
     51 H13        18.5390   43.8750   22.7180 H         1 MOL         0.1500 
     52 H14        20.4790   43.5300   21.2610 H         1 MOL         0.1500 
     53 H15        16.9870   40.0380   21.5690 H         1 MOL         0.1500 
     54 H16        18.8720   39.7360   20.0230 H         1 MOL         0.1500 
     55 H17        21.4390   42.2620   19.5320 H         1 MOL         0.4000 
     56 H18        23.7490   39.5430   17.0830 H         1 MOL         0.1500 
     57 H19        24.0670   37.1630   16.9470 H         1 MOL         0.0000 
     58 H20        22.7680   36.1210   17.5290 H         1 MOL         0.0000 
     59 H21        24.1450   36.4970   18.5800 H         1 MOL         0.0000 
     60 H22        22.0260   36.1250   19.5240 H         1 MOL         0.4000 
     61 H23        19.9370   38.3330   21.7020 H         1 MOL         0.1500 
     62 H24        21.0960   34.3830   20.4790 H         1 MOL         0.1500 
     63 H25        19.8750   33.4340   22.3950 H         1 MOL         0.1500 
     64 H26        18.6880   34.9250   23.9900 H         1 MOL         0.1500 
     65 H27        18.9880   39.6220   23.2370 H         1 MOL         0.4200 
     66 H28        22.4060   38.5570   25.0000 H         1 MOL         0.0000 
     67 H29        21.6980   38.2940   23.4170 H         1 MOL         0.0000 
     68 H30        21.1160   37.3760   24.8220 H         1 MOL         0.0000 
     69 H31        21.2230   39.8740   26.7680 H         1 MOL         0.0000 
     70 H32        19.9150   38.6860   26.7540 H         1 MOL         0.0000 
     71 H33        19.5550   40.4040   26.5330 H         1 MOL         0.0000 
     72 H34        21.9260   41.0550   24.6680 H         1 MOL         0.0000 
     73 H35        20.2710   41.6060   24.3840 H         1 MOL         0.0000 
     74 H36        21.1350   40.7130   23.1250 H         1 MOL         0.0000 
@<TRIPOS>BOND
     1    1    2 1    
     2    1    5 1    
     3    2    3 1    
     4    3    4 1    
     5    4    5 1    
     6    5    6 1    
     7    6    7 1    
     8    7    8 1    
     9    8    9 1    
    10    9   10 ar   
    11    9   12 ar   
    12   10   11 ar   
    13   11   14 ar   
    14   12   13 ar   
    15   13   14 ar   
    16   14   15 1    
    17   15   16 1    
    18   16   17 ar   
    19   16   18 ar   
    20   17   22 ar   
    21   18   19 ar   
    22   19   20 ar   
    23   20   21 1    
    24   20   22 ar   
    25   22   23 1    
    26   23   24 1    
    27   24   25 ar   
    28   24   26 ar   
    29   25   29 ar   
    30   26   27 ar   
    31   27   28 ar   
    32   28   29 ar   
    33   29   30 1    
    34   30   31 2    
    35   30   32 2    
    36   30   33 am   
    37   33   34 1    
    38   34   35 1    
    39   34   36 1    
    40   34   37 1    
    41    1   38 1    
    42    1   39 1    
    43    2   40 1    
    44    2   41 1    
    45    3   42 1    
    46    3   43 1    
    47    4   44 1    
    48    4   45 1    
    49    5   46 1    
    50    6   47 1    
    51    6   48 1    
    52    7   49 1    
    53    7   50 1    
    54   10   51 1    
    55   11   52 1    
    56   12   53 1    
    57   13   54 1    
    58   15   55 1    
    59   19   56 1    
    60   21   57 1    
    61   21   58 1    
    62   21   59 1    
    63   23   60 1    
    64   25   61 1    
    65   26   62 1    
    66   27   63 1    
    67   28   64 1    
    68   33   65 1    
    69   35   66 1    
    70   35   67 1    
    71   35   68 1    
    72   36   69 1    
    73   36   70 1    
    74   36   71 1    
    75   37   72 1    
    76   37   73 1    
    77   37   74 1    
@<TRIPOS>SUBSTRUCTURE
     1 MOL         1 PERM              0 ****  ****    0 ROOT 
@<TRIPOS>NORMAL
@<TRIPOS>ALT_TYPE
MMFF94_ALT_TYPE_SET 
MMFF94 1 CR 2 CR 3 CR 4 CR 6 CR 7 CR 21 CR 34 CR 35 CR 36 CR 37 CR 9 CB \
10 CB 11 CB 12 CB 13 CB 14 CB 16 CB 19 CB 20 CB 22 CB \
24 CB 25 CB 26 CB 27 CB 28 CB 29 CB 38 HC 39 HC 40 HC \
41 HC 42 HC 43 HC 44 HC 45 HC 47 HC 48 HC 49 HC 50 HC \
51 HC 52 HC 53 HC 54 HC 56 HC 57 HC 58 HC 59 HC 61 HC \
62 HC 63 HC 64 HC 66 HC 67 HC 68 HC 69 HC 70 HC 71 HC \
72 HC 73 HC 74 HC 55 HNCC 60 HNCC 65 HNSO 46 HNR+ 31 O2S \
32 O2S 8 OC=C 17 NPYD 18 NPYD 5 NR+ 33 NSO2 15 NC=N \
23 NC=N 30 SO2N 
