#	Name:			2xdl_ligand
#	Creating user name:	suminyi
#	Creation time:		Sun Sep 30 06:50:56 2018

#	Modifying user name:	suminyi
#	Modification time:	Sun Sep 30 06:50:57 2018

@<TRIPOS>MOLECULE
2xdl_ligand
   33    33     1     1     0
SMALL
MMFF94_CHARGES


@<TRIPOS>ATOM
      1 C1         64.8750   33.0050   27.5850 C.ar      1 MOL         0.0825 
      2 C2         66.0120   33.5310   26.9720 C.ar      1 MOL         0.0825 
      3 C3         65.8640   34.3590   25.8560 C.ar      1 MOL        -0.1500 
      4 C4         64.5950   34.6500   25.3380 C.ar      1 MOL         0.0862 
      5 C5         63.4710   34.0710   25.9390 C.ar      1 MOL        -0.1500 
      6 C6         63.6080   33.2780   27.0790 C.ar      1 MOL        -0.1500 
      7 O7         65.0300   32.2250   28.6840 O.3       1 MOL        -0.5325 
      8 C9         65.3600   38.7120   25.2510 C.3       1 MOL         0.0000 
      9 C10        65.9460   37.3050   25.0260 C.3       1 MOL         0.3001 
     10 C12        65.3940   37.1780   22.5710 C.3       1 MOL         0.3001 
     11 C13        66.8050   37.6700   22.1860 C.3       1 MOL         0.0000 
     12 C14        64.4360   35.5230   24.1190 C.2       1 MOL         0.5438 
     13 O15        63.5420   35.3080   23.3220 O.2       1 MOL        -0.5700 
     14 O16        67.2640   33.2110   27.4870 O.3       1 MOL        -0.3625 
     15 N3         65.3140   36.5480   23.9080 N.am      1 MOL        -0.6602 
     16 C15        68.4760   33.8230   26.9720 C.3       1 MOL         0.2800 
     17 H1         66.7370   34.7560   25.3480 H         1 MOL         0.1500 
     18 H2         62.4670   34.2820   25.5620 H         1 MOL         0.1500 
     19 H3         62.7180   32.8760   27.5630 H         1 MOL         0.1500 
     20 H4         65.9900   32.1010   28.7610 H         1 MOL         0.4500 
     21 H5         65.9000   39.2130   26.0590 H         1 MOL         0.0000 
     22 H6         64.3150   38.6440   25.5530 H         1 MOL         0.0000 
     23 H7         65.4240   39.3280   24.3560 H         1 MOL         0.0000 
     24 H8         65.8090   36.7890   25.9780 H         1 MOL         0.0000 
     25 H9         67.0230   37.3780   24.8510 H         1 MOL         0.0000 
     26 H10        65.0830   36.4520   21.8150 H         1 MOL         0.0000 
     27 H11        64.6870   38.0110   22.5280 H         1 MOL         0.0000 
     28 H12        66.8220   37.9670   21.1340 H         1 MOL         0.0000 
     29 H13        67.5360   36.8710   22.3220 H         1 MOL         0.0000 
     30 H14        67.1140   38.5240   22.7900 H         1 MOL         0.0000 
     31 H15        69.3510   33.3460   27.4160 H         1 MOL         0.0000 
     32 H16        68.4760   34.8910   27.2090 H         1 MOL         0.0000 
     33 H17        68.5180   33.6880   25.8910 H         1 MOL         0.0000 
@<TRIPOS>BOND
     1    2    1 ar   
     2    6    1 ar   
     3    1    7 1    
     4    3    2 ar   
     5    2   14 1    
     6    4    3 ar   
     7    4    5 ar   
     8   12    4 1    
     9    5    6 ar   
    10    9    8 1    
    11   15    9 1    
    12   10   11 1    
    13   15   10 1    
    14   12   13 2    
    15   12   15 am   
    16   14   16 1    
    17    3   17 1    
    18    5   18 1    
    19    6   19 1    
    20    7   20 1    
    21    8   21 1    
    22    8   22 1    
    23    8   23 1    
    24    9   24 1    
    25    9   25 1    
    26   10   26 1    
    27   10   27 1    
    28   11   28 1    
    29   11   29 1    
    30   11   30 1    
    31   16   31 1    
    32   16   32 1    
    33   16   33 1    
@<TRIPOS>SUBSTRUCTURE
     1 MOL         1 PERM              0 ****  ****    0 ROOT 
@<TRIPOS>NORMAL
@<TRIPOS>ALT_TYPE
MMFF94_ALT_TYPE_SET 
MMFF94 8 CR 9 CR 10 CR 11 CR 16 CR 1 CB 2 CB 3 CB 4 CB 5 CB 6 CB 12 C=ON \
17 HC 18 HC 19 HC 21 HC 22 HC 23 HC 24 HC 25 HC 26 HC \
27 HC 28 HC 29 HC 30 HC 31 HC 32 HC 33 HC 20 HOCC 13 O=CN \
7 OC=C 14 OC=C 15 NC=O 
