#	Name:			2brb_ligand
#	Creating user name:	suminyi
#	Creation time:		Sun Sep 30 06:51:10 2018

#	Modifying user name:	suminyi
#	Modification time:	Sun Sep 30 06:51:10 2018

@<TRIPOS>MOLECULE
2brb_ligand
   42    45     1     1     0
SMALL
MMFF94_CHARGES


@<TRIPOS>ATOM
      1 C2         14.1790    0.1350    9.6890 C.ar      1 MOL         0.4700 
      2 C10        18.1530   -1.6670    9.3720 C.2       1 MOL         0.0870 
      3 C11        19.5330   -2.0080    9.0200 C.ar      1 MOL         0.0530 
      4 C12        20.1760   -3.2190    9.3270 C.ar      1 MOL        -0.1500 
      5 C13        21.5090   -3.4360    8.9800 C.ar      1 MOL        -0.1500 
      6 C14        22.2350   -2.4540    8.3140 C.ar      1 MOL        -0.1500 
      7 C15        21.6070   -1.2680    7.9570 C.ar      1 MOL        -0.1500 
      8 C16        20.2690   -1.0660    8.2870 C.ar      1 MOL        -0.1500 
      9 C19        16.7280   -4.7760   10.2340 C.ar      1 MOL        -0.1500 
     10 C20        16.8490   -6.0480   10.7900 C.ar      1 MOL        -0.1500 
     11 C21        17.6800   -6.2360   11.8850 C.ar      1 MOL        -0.1500 
     12 C22        18.3850   -5.1600   12.4090 C.ar      1 MOL        -0.1500 
     13 N1         15.3580    0.3650    9.0810 N.ar      1 MOL        -0.5670 
     14 C6         16.2910   -0.5590    9.3180 C.ar      1 MOL         0.3970 
     15 O6         17.5810   -0.5080    8.8410 O.3       1 MOL        -0.2800 
     16 C5         16.0570   -1.6670   10.0630 C.ar      1 MOL         0.0000 
     17 N9         14.5560   -2.8750   11.4470 N.pl3     1 MOL        -0.8691 
     18 C4         14.8200   -1.8270   10.6340 C.ar      1 MOL         0.4100 
     19 N3         13.8510   -0.9290   10.4560 N.ar      1 MOL        -0.6200 
     20 C17        18.2640   -3.8860   11.8590 C.ar      1 MOL        -0.1500 
     21 C1         17.2660   -2.4090   10.1380 C.2       1 MOL        -0.0540 
     22 C18        17.4380   -3.6970   10.7510 C.ar      1 MOL         0.0540 
     23 C23        12.7930   -2.3930   13.1750 C.3       1 MOL         0.2800 
     24 C8         13.2420   -3.2680   11.9820 C.3       1 MOL         0.3691 
     25 O24        12.2420   -1.1720   12.6800 O.3       1 MOL        -0.6800 
     26 H1         13.3910    0.8620    9.5400 H         1 MOL         0.1500 
     27 H2         19.6720   -4.0380    9.8170 H         1 MOL         0.1500 
     28 H3         21.9840   -4.3780    9.2510 H         1 MOL         0.1500 
     29 H4         23.2860   -2.6130    8.0820 H         1 MOL         0.1500 
     30 H5         22.1630   -0.4850    7.4420 H         1 MOL         0.1500 
     31 H6         19.8060   -0.1380    7.9800 H         1 MOL         0.1500 
     32 H7         16.1250   -4.6160    9.3520 H         1 MOL         0.1500 
     33 H8         16.3340   -6.9030   10.3590 H         1 MOL         0.1500 
     34 H9         17.8060   -7.2230   12.3250 H         1 MOL         0.1500 
     35 H10        19.0550   -5.3310   13.2420 H         1 MOL         0.1500 
     36 H11        15.3720   -3.4570   11.6320 H         1 MOL         0.4000 
     37 H12        18.8290   -3.0590   12.2890 H         1 MOL         0.1500 
     38 H13        13.6440   -2.1920   13.8320 H         1 MOL         0.0000 
     39 H14        12.0260   -2.9200   13.7490 H         1 MOL         0.0000 
     40 H15        13.3070   -4.3020   12.3310 H         1 MOL         0.0000 
     41 H16        12.4860   -3.2230   11.1910 H         1 MOL         0.0000 
     42 H17        12.8140   -0.9220   11.8930 H         1 MOL         0.4000 
@<TRIPOS>BOND
     1   13    1 ar   
     2   19    1 ar   
     3    2    3 1    
     4    2   15 1    
     5   21    2 2    
     6    3    4 ar   
     7    3    8 ar   
     8    4    5 ar   
     9    5    6 ar   
    10    7    6 ar   
    11    8    7 ar   
    12    9   10 ar   
    13   22    9 ar   
    14   10   11 ar   
    15   12   11 ar   
    16   20   12 ar   
    17   14   13 ar   
    18   14   15 1    
    19   16   14 ar   
    20   16   18 ar   
    21   21   16 1    
    22   18   17 1    
    23   17   24 1    
    24   18   19 ar   
    25   22   20 ar   
    26   21   22 1    
    27   24   23 1    
    28   23   25 1    
    29    1   26 1    
    30    4   27 1    
    31    5   28 1    
    32    6   29 1    
    33    7   30 1    
    34    8   31 1    
    35    9   32 1    
    36   10   33 1    
    37   11   34 1    
    38   12   35 1    
    39   17   36 1    
    40   20   37 1    
    41   23   38 1    
    42   23   39 1    
    43   24   40 1    
    44   24   41 1    
    45   25   42 1    
@<TRIPOS>SUBSTRUCTURE
     1 MOL         1 PERM              0 ****  ****    0 ROOT 
@<TRIPOS>NORMAL
@<TRIPOS>ALT_TYPE
MMFF94_ALT_TYPE_SET 
MMFF94 23 CR 24 CR 2 C5A 14 C5A 21 C5B 16 C5B 1 CB 3 CB 4 CB 5 CB 6 CB \
7 CB 8 CB 9 CB 10 CB 11 CB 12 CB 18 CB 20 CB 22 CB 26 HC \
27 HC 28 HC 29 HC 30 HC 31 HC 32 HC 33 HC 34 HC 35 HC \
37 HC 38 HC 39 HC 40 HC 41 HC 36 HNCC 42 HOR 15 OFUR \
25 OR 13 NPYD 19 NPYD 17 NC=N 
