#	Name:			2zy1_ligand
#	Creating user name:	suminyi
#	Creation time:		Sun Sep 30 06:51:01 2018

#	Modifying user name:	suminyi
#	Modification time:	Sun Sep 30 06:51:01 2018

@<TRIPOS>MOLECULE
2zy1_ligand
   42    43     1     1     0
SMALL
MMFF94_CHARGES


@<TRIPOS>ATOM
      1 CAJ        12.9110   58.0300   36.9130 C.ar      1 MOL        -0.1500 
      2 CAF        11.8860   58.7610   36.3120 C.ar      1 MOL        -0.1500 
      3 CAE        11.4600   59.9630   36.8740 C.ar      1 MOL        -0.1500 
      4 CAG        12.0730   60.4470   38.0280 C.ar      1 MOL        -0.1500 
      5 CAK        13.1190   59.7300   38.6080 C.ar      1 MOL        -0.1500 
      6 CAV        13.5350   58.5200   38.0620 C.ar      1 MOL         0.0825 
      7 OAS        14.5430   57.8320   38.7100 O.3       1 MOL        -0.1650 
      8 CAW        15.1640   56.7020   38.2200 C.ar      1 MOL         0.0825 
      9 CAM        16.0060   56.7810   37.1130 C.ar      1 MOL        -0.1500 
     10 CAL        14.9620   55.4810   38.8570 C.ar      1 MOL        -0.1500 
     11 CAH        15.5800   54.3310   38.3650 C.ar      1 MOL        -0.1500 
     12 CAI        16.4160   54.4100   37.2520 C.ar      1 MOL        -0.1500 
     13 CAU        16.6400   55.6380   36.6250 C.ar      1 MOL        -0.1435 
     14 CAP        17.5610   55.7240   35.4160 C.3       1 MOL         0.1435 
     15 CAN        19.0420   56.0080   35.7730 C.3       1 MOL         0.0000 
     16 CAO        19.6490   54.9440   36.7130 C.3       1 MOL         0.3001 
     17 NAR        19.5490   53.5920   36.1740 N.am      1 MOL        -0.7301 
     18 CAT        19.5620   52.4680   36.9060 C.2       1 MOL         0.5690 
     19 OAA        19.5540   52.5200   38.1290 O.2       1 MOL        -0.5700 
     20 CAQ        19.3690   51.2320   36.1120 C.3       1 MOL         0.0610 
     21 PAX        20.9750   50.7250   35.5950 P.3       1 MOL         1.1000 
     22 OAC        21.6320   51.8970   34.9670 O.co2     1 MOL        -1.0333 
     23 OAD        21.6380   50.2030   36.8180 O.co2     1 MOL        -1.0333 
     24 OAB        20.8280   49.7030   34.5490 O.co2     1 MOL        -1.0333 
     25 H1         13.2190   57.0760   36.4880 H         1 MOL         0.1500 
     26 H2         11.4170   58.3880   35.4060 H         1 MOL         0.1500 
     27 H3         10.6450   60.5140   36.4110 H         1 MOL         0.1500 
     28 H4         11.7340   61.3780   38.4760 H         1 MOL         0.1500 
     29 H5         13.6180   60.0980   39.4970 H         1 MOL         0.1500 
     30 H6         16.1750   57.7370   36.6340 H         1 MOL         0.1500 
     31 H7         14.3130   55.4270   39.7260 H         1 MOL         0.1500 
     32 H8         15.4220   53.3640   38.8400 H         1 MOL         0.1500 
     33 H9         16.9150   53.5050   36.8890 H         1 MOL         0.1500 
     34 H10        17.2030   56.5000   34.7380 H         1 MOL         0.0000 
     35 H11        17.4960   54.7910   34.8560 H         1 MOL         0.0000 
     36 H12        19.1230   56.9890   36.2440 H         1 MOL         0.0000 
     37 H13        19.6300   56.0420   34.8550 H         1 MOL         0.0000 
     38 H14        19.1420   54.9800   37.6800 H         1 MOL         0.0000 
     39 H15        20.7070   55.1590   36.8740 H         1 MOL         0.0000 
     40 H16        19.6210   53.4390   35.1760 H         1 MOL         0.3700 
     41 H17        18.7460   51.3980   35.2350 H         1 MOL         0.0000 
     42 H18        18.9300   50.4480   36.7210 H         1 MOL         0.0000 
@<TRIPOS>BOND
     1    1    2 ar   
     2    1    6 ar   
     3    2    3 ar   
     4    3    4 ar   
     5    4    5 ar   
     6    5    6 ar   
     7    6    7 1    
     8    7    8 1    
     9    8    9 ar   
    10    8   10 ar   
    11    9   13 ar   
    12   10   11 ar   
    13   11   12 ar   
    14   12   13 ar   
    15   13   14 1    
    16   14   15 1    
    17   15   16 1    
    18   16   17 1    
    19   17   18 am   
    20   18   19 2    
    21   18   20 1    
    22   20   21 1    
    23   21   22 ar   
    24   21   23 ar   
    25   21   24 ar   
    26    1   25 1    
    27    2   26 1    
    28    3   27 1    
    29    4   28 1    
    30    5   29 1    
    31    9   30 1    
    32   10   31 1    
    33   11   32 1    
    34   12   33 1    
    35   14   34 1    
    36   14   35 1    
    37   15   36 1    
    38   15   37 1    
    39   16   38 1    
    40   16   39 1    
    41   17   40 1    
    42   20   41 1    
    43   20   42 1    
@<TRIPOS>SUBSTRUCTURE
     1 MOL         1 PERM              0 ****  ****    0 ROOT 
@<TRIPOS>NORMAL
@<TRIPOS>ALT_TYPE
MMFF94_ALT_TYPE_SET 
MMFF94 14 CR 15 CR 16 CR 20 CR 1 CB 2 CB 3 CB 4 CB 5 CB 6 CB 8 CB 9 CB \
10 CB 11 CB 12 CB 13 CB 18 C=ON 25 HC 26 HC 27 HC 28 HC \
29 HC 30 HC 31 HC 32 HC 33 HC 34 HC 35 HC 36 HC 37 HC \
38 HC 39 HC 41 HC 42 HC 40 HNCO 19 O=CN 22 O3P 23 O3P \
24 O3P 7 OC=C 17 NC=O 21 PO3 
