#	Name:			2zy1_ligand
#	Creating user name:	suminyi
#	Creation time:		Sun Sep 30 06:49:09 2018

#	Modifying user name:	suminyi
#	Modification time:	Sun Sep 30 06:49:09 2018

@<TRIPOS>MOLECULE
2zy1_ligand
   42    43     1     1     0
SMALL
MMFF94_CHARGES


@<TRIPOS>ATOM
      1 CAJ        13.0250   57.9300   36.9900 C.ar      1 MOL        -0.1500 
      2 CAF        11.9720   58.6310   36.4120 C.ar      1 MOL        -0.1500 
      3 CAE        11.5460   59.8370   36.9550 C.ar      1 MOL        -0.1500 
      4 CAG        12.1690   60.3470   38.0910 C.ar      1 MOL        -0.1500 
      5 CAK        13.2170   59.6440   38.6680 C.ar      1 MOL        -0.1500 
      6 CAV        13.6540   58.4400   38.1200 C.ar      1 MOL         0.0825 
      7 OAS        14.7730   57.8650   38.6400 O.3       1 MOL        -0.1650 
      8 CAW        15.1870   56.7080   38.0480 C.ar      1 MOL         0.0825 
      9 CAM        16.0440   56.7590   36.9540 C.ar      1 MOL        -0.1500 
     10 CAL        14.8530   55.4800   38.6050 C.ar      1 MOL        -0.1500 
     11 CAH        15.3850   54.3100   38.0680 C.ar      1 MOL        -0.1500 
     12 CAI        16.2450   54.3650   36.9770 C.ar      1 MOL        -0.1500 
     13 CAU        16.5800   55.5930   36.4190 C.ar      1 MOL        -0.1435 
     14 CAP        17.5640   55.6720   35.2490 C.3       1 MOL         0.1435 
     15 CAN        18.9900   56.0180   35.6930 C.3       1 MOL         0.0000 
     16 CAO        19.6100   54.9210   36.5620 C.3       1 MOL         0.3001 
     17 NAR        19.3850   53.6280   35.8970 N.am      1 MOL        -0.7301 
     18 CAT        19.3900   52.4720   36.5520 C.2       1 MOL         0.5690 
     19 OAA        19.5620   52.3680   37.7680 O.2       1 MOL        -0.5700 
     20 CAQ        19.0890   51.2510   35.6820 C.3       1 MOL         0.0610 
     21 PAX        20.5540   50.2720   35.2740 P.3       1 MOL         1.1000 
     22 OAC        21.2780   51.0530   34.0650 O.co2     1 MOL        -1.0333 
     23 OAD        21.4880   50.3020   36.5840 O.co2     1 MOL        -1.0333 
     24 OAB        20.1230   48.9070   34.8850 O.co2     1 MOL        -1.0333 
     25 H1         13.3538   56.9902   36.5613 H         1 MOL         0.1500 
     26 H2         11.4801   58.2337   35.5315 H         1 MOL         0.1500 
     27 H3         10.7290   60.3805   36.4944 H         1 MOL         0.1500 
     28 H4         11.8381   61.2854   38.5211 H         1 MOL         0.1500 
     29 H5         13.7011   60.0360   39.5551 H         1 MOL         0.1500 
     30 H6         16.2966   57.7170   36.5141 H         1 MOL         0.1500 
     31 H7         14.1810   55.4325   39.4542 H         1 MOL         0.1500 
     32 H8         15.1270   53.3513   38.5032 H         1 MOL         0.1500 
     33 H9         16.6539   53.4509   36.5619 H         1 MOL         0.1500 
     34 H10        17.2164   56.4463   34.5493 H         1 MOL         0.0000 
     35 H11        17.5817   54.6978   34.7385 H         1 MOL         0.0000 
     36 H12        18.9635   56.9539   36.2703 H         1 MOL         0.0000 
     37 H13        19.6152   56.1564   34.7986 H         1 MOL         0.0000 
     38 H14        19.1342   54.9177   37.5538 H         1 MOL         0.0000 
     39 H15        20.6896   55.0997   36.6738 H         1 MOL         0.0000 
     40 H16        19.2214   53.6188   34.9105 H         1 MOL         0.3700 
     41 H17        18.6301   51.5971   34.7441 H         1 MOL         0.0000 
     42 H18        18.3794   50.6063   36.2214 H         1 MOL         0.0000 
@<TRIPOS>BOND
     1    1    2 ar   
     2    1    6 ar   
     3    2    3 ar   
     4    3    4 ar   
     5    4    5 ar   
     6    5    6 ar   
     7    6    7 1    
     8    7    8 1    
     9    8    9 ar   
    10    8   10 ar   
    11    9   13 ar   
    12   10   11 ar   
    13   11   12 ar   
    14   12   13 ar   
    15   13   14 1    
    16   14   15 1    
    17   15   16 1    
    18   16   17 1    
    19   17   18 am   
    20   18   19 2    
    21   18   20 1    
    22   20   21 1    
    23   21   22 ar   
    24   21   23 ar   
    25   21   24 ar   
    26    1   25 1    
    27    2   26 1    
    28    3   27 1    
    29    4   28 1    
    30    5   29 1    
    31    9   30 1    
    32   10   31 1    
    33   11   32 1    
    34   12   33 1    
    35   14   34 1    
    36   14   35 1    
    37   15   36 1    
    38   15   37 1    
    39   16   38 1    
    40   16   39 1    
    41   17   40 1    
    42   20   41 1    
    43   20   42 1    
@<TRIPOS>SUBSTRUCTURE
     1 MOL         1 PERM              0 ****  ****    0 ROOT 
@<TRIPOS>NORMAL
@<TRIPOS>ALT_TYPE
MMFF94_ALT_TYPE_SET 
MMFF94 14 CR 15 CR 16 CR 20 CR 1 CB 2 CB 3 CB 4 CB 5 CB 6 CB 8 CB 9 CB \
10 CB 11 CB 12 CB 13 CB 18 C=ON 25 HC 26 HC 27 HC 28 HC \
29 HC 30 HC 31 HC 32 HC 33 HC 34 HC 35 HC 36 HC 37 HC \
38 HC 39 HC 41 HC 42 HC 40 HNCO 19 O=CN 22 O3P 23 O3P \
24 O3P 7 OC=C 17 NC=O 21 PO3 
