#	Name:			3ary_ligand
#	Creating user name:	suminyi
#	Creation time:		Sun Sep 30 06:50:57 2018

#	Modifying user name:	suminyi
#	Modification time:	Sun Sep 30 06:50:57 2018

@<TRIPOS>MOLECULE
3ary_ligand
   26    28     1     1     0
SMALL
MMFF94_CHARGES


@<TRIPOS>ATOM
      1 C1         13.9400   -7.9940   23.9890 C.ar      1 MOL         0.1790 
      2 C2         15.3330   -7.9320   24.0690 C.ar      1 MOL        -0.1500 
      3 C3         16.0680   -8.4760   23.0240 C.ar      1 MOL         0.0000 
      4 C4         15.4630   -9.0360   21.9280 C.ar      1 MOL         0.1400 
      5 C5         14.0780   -9.0780   21.8150 C.ar      1 MOL        -0.1500 
      6 C6         13.3160   -8.5510   22.8650 C.ar      1 MOL        -0.1500 
      7 C7         17.4670   -8.6780   22.9210 C.2       1 MOL        -0.1500 
      8 C8         17.5880   -9.4140   21.7590 C.2       1 MOL         0.0550 
      9 O9         16.3880   -9.5800   21.0680 O.3       1 MOL        -0.2800 
     10 C10        18.8130  -10.0620   21.2740 C.2       1 MOL         0.5850 
     11 N11        18.8360  -10.7800   20.2200 N.2       1 MOL        -0.6960 
     12 C12        20.1790  -11.3550   20.0050 C.3       1 MOL         0.2460 
     13 C13        20.9430  -10.9350   21.2770 C.3       1 MOL         0.3691 
     14 N14        20.0040  -10.0540   21.9650 N.pl3     1 MOL        -0.8191 
     15 N15        13.1570   -7.5320   25.0910 N.2       1 MOL        -0.4790 
     16 C16        13.0470   -7.0950   26.2000 C.1       1 MOL         0.5750 
     17 S17        12.9220   -6.6360   27.7580 S.2       1 MOL        -0.2750 
     18 H1         15.8180   -7.5250   24.9500 H         1 MOL         0.1500 
     19 H2         13.5990   -9.5470   20.9530 H         1 MOL         0.1500 
     20 H3         12.2300   -8.6050   22.8250 H         1 MOL         0.1500 
     21 H4         18.2460   -8.4290   23.6300 H         1 MOL         0.1500 
     22 H5         20.6290  -10.9160   19.1120 H         1 MOL         0.0000 
     23 H6         20.1240  -12.4420   19.9120 H         1 MOL         0.0000 
     24 H7         21.8650  -10.4090   21.0160 H         1 MOL         0.0000 
     25 H8         21.1690  -11.8130   21.8900 H         1 MOL         0.0000 
     26 H9         19.8520  -10.2510   22.9410 H         1 MOL         0.4000 
@<TRIPOS>BOND
     1    1    2 ar   
     2    1    6 ar   
     3    1   15 1    
     4    2    3 ar   
     5    3    4 ar   
     6    3    7 1    
     7    4    5 ar   
     8    4    9 1    
     9    5    6 ar   
    10    7    8 2    
    11    8    9 1    
    12    8   10 1    
    13   10   11 2    
    14   10   14 1    
    15   11   12 1    
    16   12   13 1    
    17   13   14 1    
    18   15   16 2    
    19   16   17 2    
    20    2   18 1    
    21    5   19 1    
    22    6   20 1    
    23    7   21 1    
    24   12   22 1    
    25   12   23 1    
    26   13   24 1    
    27   13   25 1    
    28   14   26 1    
@<TRIPOS>SUBSTRUCTURE
     1 MOL         1 PERM              0 ****  ****    0 ROOT 
@<TRIPOS>NORMAL
@<TRIPOS>ALT_TYPE
MMFF94_ALT_TYPE_SET 
MMFF94 12 CR 13 CR 8 C5A 4 C5A 7 C5B 3 C5B 1 CB 2 CB 5 CB 6 CB 10 C=N \
16 =C= 18 HC 19 HC 20 HC 21 HC 22 HC 23 HC 24 HC 25 HC \
26 HNCN 9 OFUR 11 N=C 15 N=C 14 NC=N 17 S=C 
