#	Name:			2cet_ligand
#	Creating user name:	suminyi
#	Creation time:		Sun Sep 30 06:51:02 2018

#	Modifying user name:	suminyi
#	Modification time:	Sun Sep 30 06:51:02 2018

@<TRIPOS>MOLECULE
2cet_ligand
   42    44     1     1     0
SMALL
MMFF94_CHARGES


@<TRIPOS>ATOM
      1 O6         -3.1600    8.0910    8.1250 O.3       1 MOL        -0.6800 
      2 C6         -3.5100    9.4750    7.9760 C.3       1 MOL         0.2800 
      3 C5         -2.4320   10.4440    8.5170 C.3       1 MOL         0.2556 
      4 C4         -1.1810   10.5970    7.6110 C.3       1 MOL         0.2800 
      5 O4         -1.5520   10.8580    6.2460 O.3       1 MOL        -0.6800 
      6 C3         -0.3400   11.7790    8.1930 C.3       1 MOL         0.2800 
      7 O3          0.7730   12.0900    7.3440 O.3       1 MOL        -0.6800 
      8 C2          0.2010   11.4320    9.6070 C.3       1 MOL         0.4600 
      9 O2          0.6340   12.6490   10.2550 O.3       1 MOL        -0.6800 
     10 N1         -1.9900   10.1520    9.8800 N.pl3     1 MOL         0.0476 
     11 C8         -2.5570    9.3280   10.8220 C.2       1 MOL        -0.3016 
     12 C7         -1.6720    9.2840   11.8580 C.2       1 MOL         0.0462 
     13 N2         -0.5920   10.0700   11.5900 N.2       1 MOL        -0.5653 
     14 C1         -0.8140   10.6290   10.4040 C.2       1 MOL         0.0065 
     15 C9         -1.8670    8.5340   13.1480 C.3       1 MOL         0.1810 
     16 C10        -0.5410    7.8900   13.6170 C.3       1 MOL         0.1435 
     17 C14        -0.0600    6.7800   12.6990 C.ar      1 MOL        -0.1435 
     18 C13         0.9350    7.0440   11.7590 C.ar      1 MOL        -0.1500 
     19 C12         1.3770    6.0340   10.9070 C.ar      1 MOL        -0.1500 
     20 C15        -0.6130    5.5010   12.7780 C.ar      1 MOL        -0.1500 
     21 C16        -0.1730    4.4910   11.9240 C.ar      1 MOL        -0.1500 
     22 C11         0.8240    4.7570   10.9880 C.ar      1 MOL        -0.1500 
     23 H1         -2.4680    7.8360    7.4240 H         1 MOL         0.4000 
     24 H2         -4.4200    9.6560    8.5510 H         1 MOL         0.0000 
     25 H3         -3.7340    9.6970    6.9300 H         1 MOL         0.0000 
     26 H4         -2.9070   11.4290    8.5610 H         1 MOL         0.0000 
     27 H5         -0.5920    9.6750    7.6510 H         1 MOL         0.0000 
     28 H6         -1.8880    9.9790    5.8180 H         1 MOL         0.4000 
     29 H7         -0.9830   12.6610    8.2790 H         1 MOL         0.0000 
     30 H8          0.4230   12.5180    6.5140 H         1 MOL         0.4000 
     31 H9          1.0830   10.8030    9.4770 H         1 MOL         0.0000 
     32 H10        -0.1930   13.0970   10.6180 H         1 MOL         0.4000 
     33 H11        -3.5160    8.8570   10.6770 H         1 MOL         0.1500 
     34 H12        -2.6440    7.7760   13.0440 H         1 MOL         0.0000 
     35 H13        -2.1810    9.2410   13.9160 H         1 MOL         0.0000 
     36 H14        -0.6760    7.4860   14.6220 H         1 MOL         0.0000 
     37 H15         0.2300    8.6620   13.7010 H         1 MOL         0.0000 
     38 H16         1.3490    8.0520   11.6800 H         1 MOL         0.1500 
     39 H17         2.1380    6.2590   10.1700 H         1 MOL         0.1500 
     40 H18        -1.3980    5.2980   13.5000 H         1 MOL         0.1500 
     41 H19        -0.6190    3.5020   11.9810 H         1 MOL         0.1500 
     42 H20         1.1590    3.9780   10.3080 H         1 MOL         0.1500 
@<TRIPOS>BOND
     1    1    2 1    
     2    2    3 1    
     3    3    4 1    
     4    3   10 1    
     5    4    5 1    
     6    4    6 1    
     7    6    7 1    
     8    6    8 1    
     9    8    9 1    
    10    8   14 1    
    11   10   11 1    
    12   10   14 1    
    13   11   12 2    
    14   12   13 1    
    15   12   15 1    
    16   13   14 2    
    17   15   16 1    
    18   16   17 1    
    19   17   18 ar   
    20   17   20 ar   
    21   18   19 ar   
    22   19   22 ar   
    23   20   21 ar   
    24   21   22 ar   
    25    1   23 1    
    26    2   24 1    
    27    2   25 1    
    28    3   26 1    
    29    4   27 1    
    30    5   28 1    
    31    6   29 1    
    32    7   30 1    
    33    8   31 1    
    34    9   32 1    
    35   11   33 1    
    36   15   34 1    
    37   15   35 1    
    38   16   36 1    
    39   16   37 1    
    40   18   38 1    
    41   19   39 1    
    42   20   40 1    
    43   21   41 1    
    44   22   42 1    
@<TRIPOS>SUBSTRUCTURE
     1 MOL         1 PERM              0 ****  ****    0 ROOT 
@<TRIPOS>NORMAL
@<TRIPOS>ALT_TYPE
MMFF94_ALT_TYPE_SET 
MMFF94 2 CR 3 CR 4 CR 6 CR 8 CR 15 CR 16 CR 11 C5A 14 C5A 12 C5B 17 CB \
18 CB 19 CB 20 CB 21 CB 22 CB 24 HC 25 HC 26 HC 27 HC \
29 HC 31 HC 33 HC 34 HC 35 HC 36 HC 37 HC 38 HC 39 HC \
40 HC 41 HC 42 HC 23 HOR 28 HOR 30 HOR 32 HOR 1 OR 5 OR \
7 OR 9 OR 10 NPYL 13 N5B 
