#	Name:			1z9g_ligand
#	Creating user name:	suminyi
#	Creation time:		Sun Sep 30 06:51:03 2018

#	Modifying user name:	suminyi
#	Modification time:	Sun Sep 30 06:51:03 2018

@<TRIPOS>MOLECULE
1z9g_ligand
   31    31     1     1     0
SMALL
MMFF94_CHARGES


@<TRIPOS>ATOM
      1 SG         35.9500   42.9720   -6.7480 S.3       1 MOL        -0.4100 
      2 CB2        35.3660   42.3160   -5.1320 C.3       1 MOL         0.2300 
      3 CA1        36.4270   42.2510   -4.0060 C.3       1 MOL         0.3001 
      4 CB1        35.8040   42.4330   -2.6090 C.3       1 MOL         0.1435 
      5 CG         36.7970   42.6260   -1.4910 C.ar      1 MOL        -0.1435 
      6 CD1        37.5120   43.8220   -1.4390 C.ar      1 MOL        -0.1500 
      7 CD2        36.8730   41.7180   -0.4370 C.ar      1 MOL        -0.1500 
      8 CE1        38.3150   44.1040   -0.3450 C.ar      1 MOL        -0.1500 
      9 CE2        37.6620   42.0140    0.6700 C.ar      1 MOL        -0.1500 
     10 CZ         38.3950   43.1980    0.7090 C.ar      1 MOL        -0.1500 
     11 C1         38.3490   40.6550   -3.9100 C.2       1 MOL         0.5690 
     12 O1         39.1770   41.5490   -3.8610 O.2       1 MOL        -0.5700 
     13 N          37.0570   40.9450   -4.0560 N.am      1 MOL        -0.7301 
     14 CA2        38.6830   39.2110   -3.7410 C.3       1 MOL        -0.0450 
     15 C2         38.1340   38.3160   -4.8110 C.2       1 MOL         0.9060 
     16 O2         37.1300   38.6490   -5.4150 O.co2     1 MOL        -0.9000 
     17 O3         38.4680   37.1580   -4.7250 O.co2     1 MOL        -0.9000 
     18 H1         34.8640   42.4440   -7.3780 H         1 MOL         0.1800 
     19 H2         34.9580   41.3110   -5.2840 H         1 MOL         0.0000 
     20 H3         34.5270   42.9340   -4.8360 H         1 MOL         0.0000 
     21 H4         37.1670   43.0410   -4.1490 H         1 MOL         0.0000 
     22 H5         35.0930   41.6350   -2.3860 H         1 MOL         0.0000 
     23 H6         35.2580   43.3540   -2.5840 H         1 MOL         0.0000 
     24 H7         37.4030   44.5670   -2.2230 H         1 MOL         0.1500 
     25 H8         36.2860   40.8020   -0.4600 H         1 MOL         0.1500 
     26 H9         38.8130   45.0670   -0.2850 H         1 MOL         0.1500 
     27 H10        37.6940   41.3320    1.5120 H         1 MOL         0.1500 
     28 H11        39.0020   43.4390    1.5770 H         1 MOL         0.1500 
     29 H12        36.4420   40.1310   -4.0960 H         1 MOL         0.3700 
     30 H13        38.2800   38.8700   -2.7870 H         1 MOL         0.0000 
     31 H14        39.7650   39.0940   -3.7130 H         1 MOL         0.0000 
@<TRIPOS>BOND
     1    2    1 1    
     2    3    2 1    
     3    3    4 1    
     4   13    3 1    
     5    4    5 1    
     6    5    6 ar   
     7    5    7 ar   
     8    6    8 ar   
     9    7    9 ar   
    10    8   10 ar   
    11    9   10 ar   
    12   11   12 2    
    13   11   13 am   
    14   11   14 1    
    15   14   15 1    
    16   15   16 ar   
    17   15   17 ar   
    18    1   18 1    
    19    2   19 1    
    20    2   20 1    
    21    3   21 1    
    22    4   22 1    
    23    4   23 1    
    24    6   24 1    
    25    7   25 1    
    26    8   26 1    
    27    9   27 1    
    28   10   28 1    
    29   13   29 1    
    30   14   30 1    
    31   14   31 1    
@<TRIPOS>SUBSTRUCTURE
     1 MOL         1 PERM              0 ****  ****    0 ROOT 
@<TRIPOS>NORMAL
@<TRIPOS>ALT_TYPE
MMFF94_ALT_TYPE_SET 
MMFF94 2 CR 3 CR 4 CR 14 CR 5 CB 6 CB 7 CB 8 CB 9 CB 10 CB 15 CO2M 11 C=ON \
19 HC 20 HC 21 HC 22 HC 23 HC 24 HC 25 HC 26 HC 27 HC \
28 HC 30 HC 31 HC 29 HNCO 18 HS 16 O2CM 17 O2CM 12 O=CN \
13 NC=O 1 S 
