#	Name:			1bcu_ligand
#	Creating user name:	suminyi
#	Creation time:		Sun Sep 30 06:51:00 2018

#	Modifying user name:	suminyi
#	Modification time:	Sun Sep 30 06:51:00 2018

@<TRIPOS>MOLECULE
1bcu_ligand
   27    29     1     1     0
SMALL
MMFF94_CHARGES


@<TRIPOS>ATOM
      1 C1          8.9110   23.1280   49.4580 C.ar      1 MOL        -0.1500 
      2 C2          9.6260   23.5700   48.3460 C.ar      1 MOL        -0.1500 
      3 C3         10.5910   22.7510   47.7720 C.ar      1 MOL         0.1000 
      4 C4         10.8450   21.4960   48.2960 C.ar      1 MOL        -0.1500 
      5 C5         10.0130   18.0790   51.4160 C.ar      1 MOL        -0.1500 
      6 C6          9.3580   17.5850   52.5330 C.ar      1 MOL         0.1000 
      7 C7          8.3680   18.3350   53.1540 C.ar      1 MOL        -0.1500 
      8 C8          8.0430   19.6010   52.6710 C.ar      1 MOL        -0.1500 
      9 C9          8.4470   21.3890   51.0790 C.ar      1 MOL        -0.1500 
     10 N10        10.3980   19.8040   49.8750 N.ar      1 MOL        -0.6200 
     11 C11        10.1370   21.0310   49.3960 C.ar      1 MOL         0.3100 
     12 C12         8.7240   20.1130   51.5650 C.ar      1 MOL         0.0000 
     13 C13         9.1630   21.8570   49.9800 C.ar      1 MOL         0.0000 
     14 C14         9.7110   19.3440   50.9320 C.ar      1 MOL         0.3100 
     15 N15        11.2960   23.1620   46.6910 N.pl3     1 MOL        -0.9000 
     16 N16         9.7530   16.4180   53.0940 N.pl3     1 MOL        -0.9000 
     17 H1          8.1520   23.7660   49.9080 H         1 MOL         0.1500 
     18 H2          9.4180   24.5440   47.9170 H         1 MOL         0.1500 
     19 H3         11.6070   20.8580   47.8540 H         1 MOL         0.1500 
     20 H4         10.8020   17.5070   50.9370 H         1 MOL         0.1500 
     21 H5          7.8910   17.9410   54.0490 H         1 MOL         0.1500 
     22 H6          7.2830   20.1870   53.1770 H         1 MOL         0.1500 
     23 H7          7.6870   22.0090   51.5450 H         1 MOL         0.1500 
     24 H8         11.4030   24.1450   46.5090 H         1 MOL         0.4000 
     25 H9         12.1170   22.6050   46.4080 H         1 MOL         0.4000 
     26 H10        10.6140   16.0140   52.7390 H         1 MOL         0.4000 
     27 H11         9.7320   16.4180   54.1280 H         1 MOL         0.4000 
@<TRIPOS>BOND
     1    1   13 ar   
     2    1    2 ar   
     3    2    3 ar   
     4    3   15 1    
     5    3    4 ar   
     6    4   11 ar   
     7   11   10 ar   
     8   11   13 ar   
     9   13    9 ar   
    10    9   12 ar   
    11   12    8 ar   
    12   12   14 ar   
    13   14    5 ar   
    14   14   10 ar   
    15    5    6 ar   
    16    6   16 1    
    17    6    7 ar   
    18    7    8 ar   
    19    1   17 1    
    20    2   18 1    
    21    4   19 1    
    22    5   20 1    
    23    7   21 1    
    24    8   22 1    
    25    9   23 1    
    26   15   24 1    
    27   15   25 1    
    28   16   26 1    
    29   16   27 1    
@<TRIPOS>SUBSTRUCTURE
     1 MOL         1 PERM              0 ****  ****    0 ROOT 
@<TRIPOS>NORMAL
@<TRIPOS>ALT_TYPE
MMFF94_ALT_TYPE_SET 
MMFF94 1 CB 2 CB 3 CB 4 CB 5 CB 6 CB 7 CB 8 CB 9 CB 11 CB 12 CB 13 CB \
14 CB 17 HC 18 HC 19 HC 20 HC 21 HC 22 HC 23 HC 24 HNCC \
25 HNCC 26 HNCC 27 HNCC 10 NPYD 15 NC=C 16 NC=C 
