#	Name:			2zcq_ligand
#	Creating user name:	suminyi
#	Creation time:		Sun Sep 30 06:51:01 2018

#	Modifying user name:	suminyi
#	Modification time:	Sun Sep 30 06:51:01 2018

@<TRIPOS>MOLECULE
2zcq_ligand
   41    42     1     1     0
SMALL
MMFF94_CHARGES


@<TRIPOS>ATOM
      1 CAL        15.0890   55.1970   40.2020 C.ar      1 MOL        -0.1500 
      2 CAH        14.8600   56.3120   41.0130 C.ar      1 MOL        -0.1500 
      3 CAG        13.8400   56.2890   41.9660 C.ar      1 MOL        -0.1500 
      4 CAI        13.0320   55.1580   42.0980 C.ar      1 MOL        -0.1500 
      5 CAM        13.2450   54.0600   41.2670 C.ar      1 MOL        -0.1500 
      6 CAU        14.2770   54.0690   40.3350 C.ar      1 MOL         0.0825 
      7 OAS        14.3430   53.0330   39.4310 O.3       1 MOL        -0.1650 
      8 CAV        15.3930   52.1610   39.2910 C.ar      1 MOL         0.0825 
      9 CAO        15.8200   51.8210   38.0110 C.ar      1 MOL        -0.1500 
     10 CAN        15.9970   51.5820   40.4060 C.ar      1 MOL        -0.1500 
     11 CAJ        17.0340   50.6680   40.2340 C.ar      1 MOL        -0.1500 
     12 CAK        17.4630   50.3230   38.9510 C.ar      1 MOL        -0.1500 
     13 CAT        16.8640   50.9140   37.8440 C.ar      1 MOL        -0.1435 
     14 CAQ        17.4610   50.6540   36.4780 C.3       1 MOL         0.1435 
     15 CAP        18.6450   51.6030   36.1500 C.3       1 MOL         0.0000 
     16 CAR        19.6270   51.8480   37.3490 C.3       1 MOL         0.0000 
     17 CAW        20.8490   52.7600   37.0290 C.3       1 MOL         0.1052 
     18 PAX        21.9200   51.9500   35.9100 P.3       1 MOL         1.1000 
     19 OAB        23.1940   52.6420   36.1310 O.co2     1 MOL        -1.0333 
     20 OAC        21.9350   50.5650   36.3680 O.co2     1 MOL        -1.0333 
     21 OAA        21.2760   52.1840   34.5900 O.co2     1 MOL        -1.0333 
     22 SAY        21.8640   53.2280   38.3950 S.o2      1 MOL         1.3448 
     23 OAF        22.6110   54.4750   38.4500 O.co2     1 MOL        -0.8167 
     24 OAE        22.6110   52.2720   39.1630 O.co2     1 MOL        -0.8167 
     25 OAD        20.8520   53.6490   39.3430 O.co2     1 MOL        -0.8167 
     26 H1         15.8640   55.2100   39.4360 H         1 MOL         0.1500 
     27 H2         15.4580   57.2090   40.8800 H         1 MOL         0.1500 
     28 H3         13.6560   57.1590   42.5930 H         1 MOL         0.1500 
     29 H4         12.2310   55.1380   42.8330 H         1 MOL         0.1500 
     30 H5         12.5970   53.1910   41.3100 H         1 MOL         0.1500 
     31 H6         15.3850   52.2940   37.1340 H         1 MOL         0.1500 
     32 H7         15.6600   51.8470   41.4020 H         1 MOL         0.1500 
     33 H8         17.5330   50.2550   41.0980 H         1 MOL         0.1500 
     34 H9         18.3240   49.6670   38.7660 H         1 MOL         0.1500 
     35 H10        16.6820   50.7460   35.7200 H         1 MOL         0.0000 
     36 H11        17.8100   49.6210   36.4220 H         1 MOL         0.0000 
     37 H12        18.2590   52.5590   35.7940 H         1 MOL         0.0000 
     38 H13        19.1730   51.1480   35.3070 H         1 MOL         0.0000 
     39 H14        19.9680   50.8780   37.7160 H         1 MOL         0.0000 
     40 H15        19.0680   52.3150   38.1560 H         1 MOL         0.0000 
     41 H16        20.5310   53.6580   36.5190 H         1 MOL         0.0000 
@<TRIPOS>BOND
     1    1    2 ar   
     2    1    6 ar   
     3    2    3 ar   
     4    3    4 ar   
     5    4    5 ar   
     6    5    6 ar   
     7    6    7 1    
     8    7    8 1    
     9    8    9 ar   
    10    8   10 ar   
    11    9   13 ar   
    12   10   11 ar   
    13   11   12 ar   
    14   12   13 ar   
    15   13   14 1    
    16   14   15 1    
    17   15   16 1    
    18   16   17 1    
    19   17   18 1    
    20   17   22 1    
    21   18   19 ar   
    22   18   20 ar   
    23   18   21 ar   
    24   22   23 ar   
    25   22   24 ar   
    26   22   25 ar   
    27    1   26 1    
    28    2   27 1    
    29    3   28 1    
    30    4   29 1    
    31    5   30 1    
    32    9   31 1    
    33   10   32 1    
    34   11   33 1    
    35   12   34 1    
    36   14   35 1    
    37   14   36 1    
    38   15   37 1    
    39   15   38 1    
    40   16   39 1    
    41   16   40 1    
    42   17   41 1    
@<TRIPOS>SUBSTRUCTURE
     1 MOL         1 PERM              0 ****  ****    0 ROOT 
@<TRIPOS>NORMAL
@<TRIPOS>ALT_TYPE
MMFF94_ALT_TYPE_SET 
MMFF94 14 CR 15 CR 16 CR 17 CR 1 CB 2 CB 3 CB 4 CB 5 CB 6 CB 8 CB 9 CB \
10 CB 11 CB 12 CB 13 CB 26 HC 27 HC 28 HC 29 HC 30 HC \
31 HC 32 HC 33 HC 34 HC 35 HC 36 HC 37 HC 38 HC 39 HC \
40 HC 41 HC 23 O3S 24 O3S 25 O3S 19 O3P 20 O3P 21 O3P \
7 OC=C 22 SO3 18 PO3 
