#	Name:			2zcq_ligand
#	Creating user name:	suminyi
#	Creation time:		Sun Sep 30 06:48:36 2018

#	Modifying user name:	suminyi
#	Modification time:	Sun Sep 30 06:48:36 2018

@<TRIPOS>MOLECULE
2zcq_ligand
   41    42     1     1     0
SMALL
MMFF94_CHARGES


@<TRIPOS>ATOM
      1 CAL        15.0650   55.4960   39.8510 C.ar      1 B65        -0.1500 
      2 CAH        14.8050   56.4450   40.8430 C.ar      1 B65        -0.1500 
      3 CAG        13.9360   56.1490   41.8870 C.ar      1 B65        -0.1500 
      4 CAI        13.3240   54.9060   41.9490 C.ar      1 B65        -0.1500 
      5 CAM        13.5840   53.9560   40.9620 C.ar      1 B65        -0.1500 
      6 CAU        14.4480   54.2580   39.9150 C.ar      1 B65         0.0825 
      7 OAS        14.5500   53.3870   38.8700 O.3       1 B65        -0.1650 
      8 CAV        15.6130   52.5420   38.8920 C.ar      1 B65         0.0825 
      9 CAO        15.9990   51.9690   37.6820 C.ar      1 B65        -0.1500 
     10 CAN        16.2330   52.1440   40.0700 C.ar      1 B65        -0.1500 
     11 CAJ        17.2260   51.1730   40.0300 C.ar      1 B65        -0.1500 
     12 CAK        17.6020   50.5940   38.8200 C.ar      1 B65        -0.1500 
     13 CAT        16.9830   50.9950   37.6410 C.ar      1 B65        -0.1435 
     14 CAQ        17.3310   50.3430   36.2980 C.3       1 B65         0.1435 
     15 CAP        18.4450   51.1010   35.5720 C.3       1 B65         0.0000 
     16 CAR        19.7000   51.1160   36.4440 C.3       1 B65         0.0000 
     17 CAW        20.9210   51.6820   35.7130 C.3       1 B65         0.1052 
     18 PAX        21.3180   50.6870   34.2190 P.3       1 B65         1.1000 
     19 OAB        22.8210   51.0640   33.7840 O.co2     1 B65        -1.0333 
     20 OAC        21.3420   49.1510   34.7060 O.co2     1 B65        -1.0333 
     21 OAA        20.3500   50.9090   33.1190 O.co2     1 B65        -1.0333 
     22 SAY        22.3510   51.7060   36.8530 S.o2      1 B65         1.3448 
     23 OAF        23.5260   52.0920   36.1330 O.co2     1 B65        -0.8167 
     24 OAE        22.5580   50.3410   37.4350 O.co2     1 B65        -0.8167 
     25 OAD        22.0820   52.6710   37.9740 O.co2     1 B65        -0.8167 
     26 H1         15.7440   55.7269   39.0382 H         1 B65         0.1500 
     27 H2         15.2832   57.4168   40.7984 H         1 B65         0.1500 
     28 H3         13.7367   56.8899   42.6528 H         1 B65         0.1500 
     29 H4         12.6458   54.6738   42.7621 H         1 B65         0.1500 
     30 H5         13.1123   52.9813   41.0109 H         1 B65         0.1500 
     31 H6         15.5236   52.2892   36.7619 H         1 B65         0.1500 
     32 H7         15.9435   52.5887   41.0153 H         1 B65         0.1500 
     33 H8         17.7122   50.8634   40.9480 H         1 B65         0.1500 
     34 H9         18.3743   49.8336   38.7976 H         1 B65         0.1500 
     35 H10        16.4331   50.3345   35.6626 H         1 B65         0.0000 
     36 H11        17.6622   49.3097   36.4786 H         1 B65         0.0000 
     37 H12        18.1203   52.1340   35.3784 H         1 B65         0.0000 
     38 H13        18.6672   50.6014   34.6175 H         1 B65         0.0000 
     39 H14        19.9236   50.0854   36.7567 H         1 B65         0.0000 
     40 H15        19.5039   51.7343   37.3324 H         1 B65         0.0000 
     41 H16        20.6983   52.7123   35.3986 H         1 B65         0.0000 
@<TRIPOS>BOND
     1    1    2 ar   
     2    1    6 ar   
     3    2    3 ar   
     4    3    4 ar   
     5    4    5 ar   
     6    5    6 ar   
     7    6    7 1    
     8    7    8 1    
     9    8    9 ar   
    10    8   10 ar   
    11    9   13 ar   
    12   10   11 ar   
    13   11   12 ar   
    14   12   13 ar   
    15   13   14 1    
    16   14   15 1    
    17   15   16 1    
    18   16   17 1    
    19   17   18 1    
    20   17   22 1    
    21   18   19 ar   
    22   18   20 ar   
    23   18   21 ar   
    24   22   23 ar   
    25   22   24 ar   
    26   22   25 ar   
    27    1   26 1    
    28    2   27 1    
    29    3   28 1    
    30    4   29 1    
    31    5   30 1    
    32    9   31 1    
    33   10   32 1    
    34   11   33 1    
    35   12   34 1    
    36   14   35 1    
    37   14   36 1    
    38   15   37 1    
    39   15   38 1    
    40   16   39 1    
    41   16   40 1    
    42   17   41 1    
@<TRIPOS>SUBSTRUCTURE
     1 B65         1 PERM              0 ****  ****    0 ROOT 
@<TRIPOS>NORMAL
@<TRIPOS>ALT_TYPE
MMFF94_ALT_TYPE_SET 
MMFF94 14 CR 15 CR 16 CR 17 CR 1 CB 2 CB 3 CB 4 CB 5 CB 6 CB 8 CB 9 CB \
10 CB 11 CB 12 CB 13 CB 26 HC 27 HC 28 HC 29 HC 30 HC \
31 HC 32 HC 33 HC 34 HC 35 HC 36 HC 37 HC 38 HC 39 HC \
40 HC 41 HC 23 O3S 24 O3S 25 O3S 19 O3P 20 O3P 21 O3P \
7 OC=C 22 SO3 18 PO3 
