#	Name:			2vw5_ligand
#	Creating user name:	suminyi
#	Creation time:		Sun Sep 30 06:50:56 2018

#	Modifying user name:	suminyi
#	Modification time:	Sun Sep 30 06:50:56 2018

@<TRIPOS>MOLECULE
2vw5_ligand
   78    79     1     1     0
SMALL
MMFF94_CHARGES


@<TRIPOS>ATOM
      1 O37        40.7710   -4.9830   41.4990 O.2       1 MOL        -0.5700 
      2 C21        40.9130   -5.5680   40.4550 C.2       1 MOL         0.6156 
      3 C20        41.2960   -7.0040   40.4130 C.2       1 MOL        -0.1238 
      4 C36        42.3150   -7.4380   41.4570 C.3       1 MOL         0.1382 
      5 C19        40.6710   -7.8520   39.5730 C.2       1 MOL        -0.2882 
      6 C18        40.8520   -9.3520   39.6020 C.3       1 MOL         0.1382 
      7 C17        40.0980  -10.0680   38.4670 C.3       1 MOL         0.0000 
      8 C16        38.5470  -10.0130   38.6020 C.3       1 MOL         0.0000 
      9 C35        38.0700  -10.8440   39.8210 C.3       1 MOL         0.0000 
     10 N22        40.7130   -4.8570   39.3410 N.am      1 MOL        -0.5470 
     11 C3         40.9570   -5.1750   37.9840 C.ar      1 MOL         0.1170 
     12 C4         39.9860   -4.8170   37.0650 C.ar      1 MOL        -0.1500 
     13 C5         40.1620   -5.1050   35.7260 C.ar      1 MOL         0.0825 
     14 O36        39.1640   -4.7750   34.8750 O.3       1 MOL        -0.5325 
     15 C6         41.3330   -5.7150   35.2870 C.ar      1 MOL        -0.1500 
     16 C1         42.3320   -6.0660   36.2040 C.ar      1 MOL        -0.1435 
     17 C2         42.1400   -5.7790   37.5590 C.ar      1 MOL        -0.1500 
     18 C7         43.5940   -6.7830   35.7280 C.3       1 MOL         0.1435 
     19 C8         43.4890   -8.3290   35.7070 C.3       1 MOL         0.0000 
     20 C25        43.4190   -8.8930   37.1380 C.3       1 MOL         0.0000 
     21 C9         42.2720   -8.7740   34.8580 C.3       1 MOL         0.0000 
     22 C10        42.1400  -10.3030   34.6410 C.3       1 MOL         0.2800 
     23 O26        43.4360  -10.8320   34.2480 O.3       1 MOL        -0.5600 
     24 C27        43.6100  -12.2620   34.4600 C.3       1 MOL         0.2800 
     25 C11        41.0920  -10.6390   33.5390 C.3       1 MOL         0.2800 
     26 O28        41.5660  -10.0970   32.2930 O.3       1 MOL        -0.6800 
     27 C12        39.6830  -10.0740   33.8500 C.3       1 MOL         0.1382 
     28 C29        38.6640  -10.5280   32.8000 C.3       1 MOL         0.0000 
     29 C13        39.1500  -10.5480   35.1900 C.2       1 MOL        -0.2882 
     30 C14        38.3850   -9.8640   36.0410 C.2       1 MOL        -0.2764 
     31 C30        37.9470   -8.4160   35.8530 C.3       1 MOL         0.1382 
     32 C15        37.8770  -10.5440   37.3100 C.3       1 MOL         0.4182 
     33 O31        36.4450  -10.3460   37.4140 O.3       1 MOL        -0.4300 
     34 C32        35.6420  -11.2630   36.8560 C.2       1 MOL         0.7800 
     35 O33        35.9700  -12.2930   36.3090 O.2       1 MOL        -0.5700 
     36 N34        34.3840  -10.9010   37.0200 N.am      1 MOL        -0.8000 
     37 H1         42.5050   -8.5130   41.4640 H         1 MOL         0.0000 
     38 H2         42.0030   -7.1570   42.4630 H         1 MOL         0.0000 
     39 H3         43.2700   -6.9400   41.2780 H         1 MOL         0.0000 
     40 H4         39.9080   -7.4800   38.8890 H         1 MOL         0.1500 
     41 H5         40.4980   -9.7090   40.5600 H         1 MOL         0.0000 
     42 H6         41.9100   -9.6130   39.5410 H         1 MOL         0.0000 
     43 H7         40.4180  -11.1130   38.4280 H         1 MOL         0.0000 
     44 H8         40.4190   -9.6110   37.5300 H         1 MOL         0.0000 
     45 H9         38.2210   -8.9810   38.7450 H         1 MOL         0.0000 
     46 H10        36.9790  -10.8760   39.8720 H         1 MOL         0.0000 
     47 H11        38.4250  -10.4150   40.7570 H         1 MOL         0.0000 
     48 H12        38.4360  -11.8710   39.7580 H         1 MOL         0.0000 
     49 H13        40.3720   -3.9310   39.5150 H         1 MOL         0.3700 
     50 H14        39.0640   -4.3410   37.3820 H         1 MOL         0.1500 
     51 H15        39.1190   -5.3960   34.0750 H         1 MOL         0.4500 
     52 H16        41.4440   -5.9300   34.2300 H         1 MOL         0.1500 
     53 H17        42.8860   -6.0650   38.2940 H         1 MOL         0.1500 
     54 H18        44.4360   -6.5140   36.3630 H         1 MOL         0.0000 
     55 H19        43.8400   -6.4330   34.7220 H         1 MOL         0.0000 
     56 H20        44.3990   -8.7170   35.2420 H         1 MOL         0.0000 
     57 H21        43.3580   -9.9820   37.1230 H         1 MOL         0.0000 
     58 H22        42.5380   -8.5100   37.6440 H         1 MOL         0.0000 
     59 H23        44.2990   -8.6080   37.7180 H         1 MOL         0.0000 
     60 H24        42.3370   -8.2780   33.8900 H         1 MOL         0.0000 
     61 H25        41.3570   -8.4260   35.3410 H         1 MOL         0.0000 
     62 H26        41.8420  -10.7710   35.5840 H         1 MOL         0.0000 
     63 H27        44.6310  -12.5420   34.1870 H         1 MOL         0.0000 
     64 H28        42.9060  -12.8250   33.8420 H         1 MOL         0.0000 
     65 H29        43.4440  -12.5000   35.5150 H         1 MOL         0.0000 
     66 H30        41.0110  -11.7270   33.4470 H         1 MOL         0.0000 
     67 H31        42.3760  -10.6350   32.1250 H         1 MOL         0.4000 
     68 H32        39.7400   -8.9880   33.8000 H         1 MOL         0.0000 
     69 H33        37.7860   -9.8930   32.8870 H         1 MOL         0.0000 
     70 H34        38.3670  -11.5650   32.9720 H         1 MOL         0.0000 
     71 H35        39.0550  -10.4480   31.7890 H         1 MOL         0.0000 
     72 H36        39.3820  -11.5880   35.4170 H         1 MOL         0.1500 
     73 H37        38.2920   -7.9630   34.9260 H         1 MOL         0.0000 
     74 H38        38.2930   -7.7900   36.6770 H         1 MOL         0.0000 
     75 H39        36.8610   -8.3620   35.8380 H         1 MOL         0.0000 
     76 H40        38.0860  -11.6170   37.2580 H         1 MOL         0.0000 
     77 H41        33.6500  -11.4390   36.5560 H         1 MOL         0.3700 
     78 H42        34.1770  -10.0350   37.4670 H         1 MOL         0.3700 
@<TRIPOS>BOND
     1    1    2 2    
     2    2    3 1    
     3    2   10 am   
     4    3    4 1    
     5    3    5 2    
     6    5    6 1    
     7    6    7 1    
     8    7    8 1    
     9    8    9 1    
    10    8   32 1    
    11   10   11 1    
    12   11   12 ar   
    13   11   17 ar   
    14   12   13 ar   
    15   13   14 1    
    16   13   15 ar   
    17   15   16 ar   
    18   16   17 ar   
    19   16   18 1    
    20   18   19 1    
    21   19   20 1    
    22   19   21 1    
    23   21   22 1    
    24   22   23 1    
    25   22   25 1    
    26   23   24 1    
    27   25   26 1    
    28   25   27 1    
    29   27   28 1    
    30   27   29 1    
    31   29   30 2    
    32   30   31 1    
    33   30   32 1    
    34   32   33 1    
    35   33   34 1    
    36   34   35 2    
    37   34   36 am   
    38    4   37 1    
    39    4   38 1    
    40    4   39 1    
    41    5   40 1    
    42    6   41 1    
    43    6   42 1    
    44    7   43 1    
    45    7   44 1    
    46    8   45 1    
    47    9   46 1    
    48    9   47 1    
    49    9   48 1    
    50   10   49 1    
    51   12   50 1    
    52   14   51 1    
    53   15   52 1    
    54   17   53 1    
    55   18   54 1    
    56   18   55 1    
    57   19   56 1    
    58   20   57 1    
    59   20   58 1    
    60   20   59 1    
    61   21   60 1    
    62   21   61 1    
    63   22   62 1    
    64   24   63 1    
    65   24   64 1    
    66   24   65 1    
    67   25   66 1    
    68   26   67 1    
    69   27   68 1    
    70   28   69 1    
    71   28   70 1    
    72   28   71 1    
    73   29   72 1    
    74   31   73 1    
    75   31   74 1    
    76   31   75 1    
    77   32   76 1    
    78   36   77 1    
    79   36   78 1    
@<TRIPOS>SUBSTRUCTURE
     1 MOL         1 PERM              0 ****  ****    0 ROOT 
@<TRIPOS>NORMAL
@<TRIPOS>ALT_TYPE
MMFF94_ALT_TYPE_SET 
MMFF94 4 CR 6 CR 7 CR 8 CR 9 CR 18 CR 19 CR 20 CR 21 CR 22 CR 24 CR \
25 CR 27 CR 28 CR 31 CR 32 CR 11 CB 12 CB 13 CB 15 CB \
16 CB 17 CB 34 COO 2 C=ON 3 C=C 5 C=C 29 C=C 30 C=C 37 HC \
38 HC 39 HC 40 HC 41 HC 42 HC 43 HC 44 HC 45 HC 46 HC \
47 HC 48 HC 50 HC 52 HC 53 HC 54 HC 55 HC 56 HC 57 HC \
58 HC 59 HC 60 HC 61 HC 62 HC 63 HC 64 HC 65 HC 66 HC \
68 HC 69 HC 70 HC 71 HC 72 HC 73 HC 74 HC 75 HC 76 HC \
49 HNCC 77 HNCO 78 HNCO 51 HOCC 67 HOR 1 O=CN 35 O=CN \
33 OC=O 14 OC=C 23 OR 26 OR 10 NC=O 36 NC=O 
