#	Name:			1ydt_ligand
#	Creating user name:	suminyi
#	Creation time:		Sun Sep 30 06:50:59 2018

#	Modifying user name:	suminyi
#	Modification time:	Sun Sep 30 06:50:59 2018

@<TRIPOS>MOLECULE
1ydt_ligand
   48    50     1     1     0
SMALL
MMFF94_CHARGES


@<TRIPOS>ATOM
      1 C1          7.3060   10.1260    3.0200 C.ar      1 MOL        -0.0090 
      2 C2          7.5310   10.1800    1.6390 C.ar      1 MOL        -0.1500 
      3 C3          6.4720   10.2120    0.7360 C.ar      1 MOL        -0.1500 
      4 C4          5.1630   10.1670    1.1980 C.ar      1 MOL        -0.1500 
      5 C5          4.9230   10.0710    2.5660 C.ar      1 MOL         0.0000 
      6 C6          3.6040    9.9870    3.0050 C.ar      1 MOL         0.1600 
      7 N7          3.2580    9.9680    4.3040 N.ar      1 MOL        -0.6200 
      8 C8          4.2580    9.9750    5.2030 C.ar      1 MOL         0.1600 
      9 C9          5.6040   10.0100    4.8410 C.ar      1 MOL        -0.1500 
     10 C10         5.9750   10.0690    3.4930 C.ar      1 MOL         0.0000 
     11 S           8.7670   10.3060    4.0640 S.o2      1 MOL         1.4470 
     12 O1          8.4520   10.7750    5.3950 O.2       1 MOL        -0.6500 
     13 O2          9.9330   10.7640    3.3240 O.2       1 MOL        -0.6500 
     14 N1'         9.3620    8.8250    4.4820 N.am      1 MOL        -0.9137 
     15 C2'         9.0920    7.6450    3.6410 C.3       1 MOL         0.3557 
     16 C3'        10.1320    7.5350    2.4940 C.3       1 MOL         0.5030 
     17 N4'        11.4630    6.9300    2.9040 N.4       1 MOL        -0.9060 
     18 C5'        12.3560    7.9030    3.6140 C.3       1 MOL         0.6412 
     19 C6'        12.9170    8.8350    2.5800 C.2       1 MOL        -0.2882 
     20 C7'        12.8150   10.1690    2.6800 C.2       1 MOL        -0.1784 
     21 C1'        13.2280   11.1540    1.6500 C.ar      1 MOL         0.0284 
     22 C11        13.8150   10.7630    0.4400 C.ar      1 MOL        -0.1500 
     23 C12        14.1860   11.7170   -0.5050 C.ar      1 MOL        -0.1500 
     24 C4'        13.9630   13.0660   -0.2490 C.ar      1 MOL         0.1110 
     25 Br4'       14.4820   14.3680   -1.5260 Br        1 MOL        -0.1110 
     26 C13        13.3710   13.4700    0.9430 C.ar      1 MOL        -0.1500 
     27 C14        13.0060   12.5130    1.8890 C.ar      1 MOL        -0.1500 
     28 H1          8.5500   10.2380    1.2500 H         1 MOL         0.1500 
     29 H2          6.6600   10.2750   -0.3330 H         1 MOL         0.1500 
     30 H3          4.3330   10.1840    0.4880 H         1 MOL         0.1500 
     31 H4          2.7820    9.9640    2.2980 H         1 MOL         0.1500 
     32 H5          3.9530    9.9570    6.2450 H         1 MOL         0.1500 
     33 H6          6.3240    9.9830    5.6460 H         1 MOL         0.1500 
     34 H7          9.0620    8.7500    5.4540 H         1 MOL         0.4200 
     35 H8          8.0840    7.6830    3.2250 H         1 MOL         0.0000 
     36 H9          9.1650    6.7380    4.2520 H         1 MOL         0.0000 
     37 H10        10.3350    8.5230    2.0710 H         1 MOL         0.0000 
     38 H11         9.7360    6.8870    1.7040 H         1 MOL         0.0000 
     39 H12        11.9450    6.4860    2.0800 H         1 MOL         0.4500 
     40 H13        11.2760    6.1280    3.5480 H         1 MOL         0.4500 
     41 H14        13.1520    7.3470    4.1190 H         1 MOL         0.0000 
     42 H15        11.7620    8.4380    4.3660 H         1 MOL         0.0000 
     43 H16        13.3590    8.3580    1.7090 H         1 MOL         0.1500 
     44 H17        12.3600   10.6110    3.5660 H         1 MOL         0.1500 
     45 H18        13.9960    9.7140    0.2130 H         1 MOL         0.1500 
     46 H19        14.6560   11.3970   -1.4340 H         1 MOL         0.1500 
     47 H20        13.2150   14.5260    1.1420 H         1 MOL         0.1500 
     48 H21        12.5580   12.8330    2.8270 H         1 MOL         0.1500 
@<TRIPOS>BOND
     1    1   11 1    
     2    1   10 ar   
     3    1    2 ar   
     4    2    3 ar   
     5    3    4 ar   
     6    4    5 ar   
     7    5   10 ar   
     8    5    6 ar   
     9    6    7 ar   
    10    7    8 ar   
    11    8    9 ar   
    12    9   10 ar   
    13   11   14 am   
    14   11   13 2    
    15   11   12 2    
    16   14   15 1    
    17   15   16 1    
    18   16   17 1    
    19   17   18 1    
    20   18   19 1    
    21   19   20 2    
    22   20   21 1    
    23   21   27 ar   
    24   21   22 ar   
    25   22   23 ar   
    26   23   24 ar   
    27   24   26 ar   
    28   24   25 1    
    29   26   27 ar   
    30    2   28 1    
    31    3   29 1    
    32    4   30 1    
    33    6   31 1    
    34    8   32 1    
    35    9   33 1    
    36   14   34 1    
    37   15   35 1    
    38   15   36 1    
    39   16   37 1    
    40   16   38 1    
    41   17   39 1    
    42   17   40 1    
    43   18   41 1    
    44   18   42 1    
    45   19   43 1    
    46   20   44 1    
    47   22   45 1    
    48   23   46 1    
    49   26   47 1    
    50   27   48 1    
@<TRIPOS>SUBSTRUCTURE
     1 MOL         1 PERM              0 ****  ****    0 ROOT 
@<TRIPOS>NORMAL
@<TRIPOS>ALT_TYPE
MMFF94_ALT_TYPE_SET 
MMFF94 15 CR 16 CR 18 CR 1 CB 2 CB 3 CB 4 CB 5 CB 6 CB 8 CB 9 CB 10 CB \
21 CB 22 CB 23 CB 24 CB 26 CB 27 CB 19 C=C 20 C=C 28 HC \
29 HC 30 HC 31 HC 32 HC 33 HC 35 HC 36 HC 37 HC 38 HC \
41 HC 42 HC 43 HC 44 HC 45 HC 46 HC 47 HC 48 HC 34 HNSO \
39 HNR+ 40 HNR+ 12 O2S 13 O2S 7 NPYD 17 NR+ 14 NSO2 \
11 SO2N 25 BR 
