#	Name:			3syr_ligand
#	Creating user name:	suminyi
#	Creation time:		Sun Sep 30 06:51:10 2018

#	Modifying user name:	suminyi
#	Modification time:	Sun Sep 30 06:51:10 2018

@<TRIPOS>MOLECULE
3syr_ligand
   33    34     1     1     0
SMALL
MMFF94_CHARGES


@<TRIPOS>ATOM
      1 C1         35.4970   23.6220   28.6520 C.2       1 MOL        -0.0410 
      2 F1         37.5660   24.4370   29.4950 F         1 MOL        -0.1495 
      3 C2         36.2340   24.3070   29.5870 C.2       1 MOL         0.1639 
      4 C3         35.6050   24.9850   30.7300 C.2       1 MOL         0.6156 
      5 O3         36.1500   25.6750   31.5630 O.2       1 MOL        -0.5700 
      6 N4         34.2870   24.8230   30.7710 N.am      1 MOL        -0.4900 
      7 C5         33.5020   24.1890   29.9100 C.2       1 MOL         0.6900 
      8 O5         32.2980   24.1420   30.0830 O.2       1 MOL        -0.5700 
      9 C1'        33.2480   22.9370   27.8490 C.3       1 MOL         0.5801 
     10 N1'        34.1100   23.6090   28.8430 N.am      1 MOL        -0.4691 
     11 C2'        33.5630   23.2010   26.3500 C.3       1 MOL         0.2800 
     12 O2'        33.4260   24.6110   26.1060 O.3       1 MOL        -0.6800 
     13 C3'        32.5480   22.4390   25.4530 C.3       1 MOL         0.2800 
     14 O3'        32.9420   22.5330   24.0730 O.3       1 MOL        -0.6800 
     15 C4'        32.4480   20.9470   25.8620 C.3       1 MOL         0.2800 
     16 O4'        31.3430   20.3270   25.1930 O.3       1 MOL        -0.6800 
     17 C5'        32.1990   20.8120   27.3830 C.3       1 MOL         0.2800 
     18 O5'        33.2330   21.5140   28.1130 O.3       1 MOL        -0.5600 
     19 C6'        32.1020   19.3450   27.8590 C.3       1 MOL         0.2800 
     20 O6'        33.1780   18.5620   27.3570 O.3       1 MOL        -0.6800 
     21 H1         35.8960   23.1190   27.7820 H         1 MOL         0.1500 
     22 H2         33.8080   25.3200   31.5170 H         1 MOL         0.3700 
     23 H3         32.2260   23.3070   28.0180 H         1 MOL         0.0000 
     24 H4         34.5770   22.8650   26.1120 H         1 MOL         0.0000 
     25 H5         33.6570   24.7910   25.1580 H         1 MOL         0.4000 
     26 H6         31.5610   22.8930   25.5750 H         1 MOL         0.0000 
     27 H7         32.7700   23.4870   23.7490 H         1 MOL         0.4000 
     28 H8         33.3830   20.4420   25.5960 H         1 MOL         0.0000 
     29 H9         31.5220   19.3570   25.2240 H         1 MOL         0.4000 
     30 H10        31.2450   21.2880   27.6160 H         1 MOL         0.0000 
     31 H11        31.1630   18.9160   27.4980 H         1 MOL         0.0000 
     32 H12        32.0970   19.3050   28.9460 H         1 MOL         0.0000 
     33 H13        34.0090   18.7510   27.8960 H         1 MOL         0.4000 
@<TRIPOS>BOND
     1    1    3 2    
     2    1   10 1    
     3    3    2 1    
     4    3    4 1    
     5    4    5 2    
     6    4    6 am   
     7    6    7 am   
     8    7    8 2    
     9    7   10 am   
    10   10    9 1    
    11    9   11 1    
    12    9   18 1    
    13   11   12 1    
    14   11   13 1    
    15   13   14 1    
    16   13   15 1    
    17   15   16 1    
    18   15   17 1    
    19   17   18 1    
    20   17   19 1    
    21   19   20 1    
    22    1   21 1    
    23    6   22 1    
    24    9   23 1    
    25   11   24 1    
    26   12   25 1    
    27   13   26 1    
    28   14   27 1    
    29   15   28 1    
    30   16   29 1    
    31   17   30 1    
    32   19   31 1    
    33   19   32 1    
    34   20   33 1    
@<TRIPOS>SUBSTRUCTURE
     1 MOL         1 PERM              0 ****  ****    0 ROOT 
@<TRIPOS>NORMAL
@<TRIPOS>ALT_TYPE
MMFF94_ALT_TYPE_SET 
MMFF94 9 CR 11 CR 13 CR 15 CR 17 CR 19 CR 7 CONN 4 C=ON 1 C=C 3 C=C \
21 HC 23 HC 24 HC 26 HC 28 HC 30 HC 31 HC 32 HC 22 HNCO \
25 HOR 27 HOR 29 HOR 33 HOR 5 O=CN 8 O=CN 12 OR 14 OR \
16 OR 18 OR 20 OR 6 NC=O 10 NC=O 2 F 
