#	Name:			3nw9_ligand
#	Creating user name:	suminyi
#	Creation time:		Sun Sep 30 06:51:03 2018

#	Modifying user name:	suminyi
#	Modification time:	Sun Sep 30 06:51:03 2018

@<TRIPOS>MOLECULE
3nw9_ligand
   62    66     1     1     0
SMALL
MMFF94_CHARGES


@<TRIPOS>ATOM
      1 C1         -4.6040   21.4490   13.9170 C.3       1 MOL         0.5356 
      2 C2         -4.9100   20.9040   15.3280 C.3       1 MOL         0.2800 
      3 O3         -5.6250   21.7840   16.2030 O.3       1 MOL        -0.6800 
      4 C4         -3.5210   20.4910   15.8430 C.3       1 MOL         0.2800 
      5 O5         -2.7010   21.5710   16.2990 O.3       1 MOL        -0.6800 
      6 C6         -2.8970   19.9140   14.5700 C.3       1 MOL         0.4182 
      7 C7         -8.6870   21.6780    9.3940 C.3       1 MOL         0.1435 
      8 N8         -7.0430   20.2030   11.4720 N.2       1 MOL        -0.5653 
      9 C9         -6.2200   20.0610   12.5410 C.2       1 MOL         0.0365 
     10 N10        -5.6430   21.2540   12.9200 N.pl3     1 MOL         0.0476 
     11 C11        -6.0680   22.1630   12.0490 C.ar      1 MOL         0.1054 
     12 C12        -6.9330   21.5180   11.2180 C.ar      1 MOL         0.2272 
     13 O13        -3.4610   20.6820   13.4810 O.3       1 MOL        -0.5600 
     14 C14        -3.3590   18.4950   14.3780 C.2       1 MOL        -0.2882 
     15 C15        -2.6510   17.6110   13.7090 C.2       1 MOL        -0.2882 
     16 C16        -3.0670   16.1840   13.5820 C.3       1 MOL         0.4383 
     17 N17        -1.8620   15.3960   13.6410 N.am      1 MOL        -0.7301 
     18 C18        -1.8100   14.1460   14.0880 C.2       1 MOL         0.5438 
     19 O19        -2.8460   13.5280   14.2510 O.2       1 MOL        -0.5700 
     20 C20        -0.4590   13.5700   14.3570 C.ar      1 MOL         0.0862 
     21 C21        -0.4230   12.3660   15.0660 C.ar      1 MOL        -0.1500 
     22 C22         0.7890   11.7530   15.4070 C.ar      1 MOL         0.0000 
     23 C23         1.9840   12.3540   14.9860 C.ar      1 MOL        -0.1500 
     24 C24         0.7760   10.4850   16.2020 C.ar      1 MOL         0.0000 
     25 C25        -0.0830   10.3530   17.3080 C.ar      1 MOL        -0.1500 
     26 C26        -0.1010    9.1710   18.0460 C.ar      1 MOL        -0.1500 
     27 C27         1.6030    9.4070   15.8470 C.ar      1 MOL        -0.1500 
     28 C28         1.5720    8.2260   16.5900 C.ar      1 MOL        -0.1500 
     29 C29         0.7250    8.1120   17.6860 C.ar      1 MOL         0.1900 
     30 F30         0.6960    6.9740   18.4000 F         1 MOL        -0.1900 
     31 C31         0.7480   14.1680   13.9540 C.ar      1 MOL         0.0825 
     32 O32         0.8120   15.3330   13.2350 O.3       1 MOL        -0.5325 
     33 C33         1.9490   13.5380   14.2580 C.ar      1 MOL         0.0825 
     34 O34         3.1070   14.1000   13.8340 O.3       1 MOL        -0.5325 
     35 C35        -7.6020   22.2720   10.2630 C.ar      1 MOL         0.1665 
     36 N38        -7.3650   23.5910   10.1330 N.ar      1 MOL        -0.6200 
     37 C39        -6.4480   24.1250   10.9660 C.ar      1 MOL         0.4700 
     38 N40        -5.8090   23.4760   11.9590 N.ar      1 MOL        -0.5670 
     39 H1         -4.3180   22.5120   13.9410 H         1 MOL         0.0000 
     40 H2         -5.5100   20.0000   15.2210 H         1 MOL         0.0000 
     41 H3         -5.1900   22.7210   16.1550 H         1 MOL         0.4000 
     42 H4         -3.5960   19.7320   16.6260 H         1 MOL         0.0000 
     43 H5         -2.7430   22.3840   15.6880 H         1 MOL         0.4000 
     44 H6         -1.8030   19.9920   14.5730 H         1 MOL         0.0000 
     45 H7         -9.1670   22.4450    8.7850 H         1 MOL         0.0000 
     46 H8         -9.4430   21.2120   10.0260 H         1 MOL         0.0000 
     47 H9         -8.2710   20.9220    8.7300 H         1 MOL         0.0000 
     48 H10        -5.9910   19.1310   13.0380 H         1 MOL         0.1500 
     49 H11        -4.2940   18.2020   14.8440 H         1 MOL         0.1500 
     50 H12        -1.6910   17.8920   13.2800 H         1 MOL         0.1500 
     51 H13        -3.5790   15.9990   12.6420 H         1 MOL         0.0000 
     52 H14        -3.7240   15.9060   14.4110 H         1 MOL         0.0000 
     53 H15        -0.9700   15.8760   13.5500 H         1 MOL         0.3700 
     54 H16        -1.3590   11.9070   15.3730 H         1 MOL         0.1500 
     55 H17         2.9520   11.9250   15.2260 H         1 MOL         0.1500 
     56 H18        -0.7230   11.1780   17.6080 H         1 MOL         0.1500 
     57 H19        -0.7550    9.0740   18.9070 H         1 MOL         0.1500 
     58 H20         2.2540    9.4820   14.9790 H         1 MOL         0.1500 
     59 H21         2.2100    7.3920   16.3120 H         1 MOL         0.1500 
     60 H22         1.7700   15.4710   12.9320 H         1 MOL         0.4500 
     61 H23         3.8380   14.0060   14.5620 H         1 MOL         0.4500 
     62 H24        -6.2440   25.1860   10.8600 H         1 MOL         0.1500 
@<TRIPOS>BOND
     1    1    2 1    
     2   10    1 1    
     3    1   13 1    
     4    2    3 1    
     5    2    4 1    
     6    4    5 1    
     7    6    4 1    
     8   13    6 1    
     9    6   14 1    
    10   35    7 1    
    11    8    9 2    
    12   12    8 1    
    13   10    9 1    
    14   11   10 1    
    15   12   11 ar   
    16   11   38 ar   
    17   12   35 ar   
    18   14   15 2    
    19   15   16 1    
    20   16   17 1    
    21   17   18 am   
    22   18   19 2    
    23   18   20 1    
    24   20   21 ar   
    25   20   31 ar   
    26   21   22 ar   
    27   22   23 ar   
    28   22   24 1    
    29   23   33 ar   
    30   24   25 ar   
    31   24   27 ar   
    32   25   26 ar   
    33   26   29 ar   
    34   27   28 ar   
    35   28   29 ar   
    36   29   30 1    
    37   31   32 1    
    38   31   33 ar   
    39   33   34 1    
    40   35   36 ar   
    41   36   37 ar   
    42   37   38 ar   
    43    1   39 1    
    44    2   40 1    
    45    3   41 1    
    46    4   42 1    
    47    5   43 1    
    48    6   44 1    
    49    7   45 1    
    50    7   46 1    
    51    7   47 1    
    52    9   48 1    
    53   14   49 1    
    54   15   50 1    
    55   16   51 1    
    56   16   52 1    
    57   17   53 1    
    58   21   54 1    
    59   23   55 1    
    60   25   56 1    
    61   26   57 1    
    62   27   58 1    
    63   28   59 1    
    64   32   60 1    
    65   34   61 1    
    66   37   62 1    
@<TRIPOS>SUBSTRUCTURE
     1 MOL         1 PERM              0 ****  ****    0 ROOT 
@<TRIPOS>NORMAL
@<TRIPOS>ALT_TYPE
MMFF94_ALT_TYPE_SET 
MMFF94 1 CR 2 CR 4 CR 6 CR 7 CR 16 CR 9 C5A 11 C5A 12 C5B 20 CB 21 CB \
22 CB 23 CB 24 CB 25 CB 26 CB 27 CB 28 CB 29 CB 31 CB \
33 CB 35 CB 37 CB 18 C=ON 14 C=C 15 C=C 39 HC 40 HC 42 HC \
44 HC 45 HC 46 HC 47 HC 48 HC 49 HC 50 HC 51 HC 52 HC \
54 HC 55 HC 56 HC 57 HC 58 HC 59 HC 62 HC 53 HNCO 60 HOCC \
61 HOCC 41 HOR 43 HOR 19 O=CN 32 OC=C 34 OC=C 3 OR \
5 OR 13 OR 36 NPYD 38 NPYD 10 NPYL 8 N5B 17 NC=O 30 F \

