#	Name:			2br1_ligand
#	Creating user name:	suminyi
#	Creation time:		Sun Sep 30 06:50:58 2018

#	Modifying user name:	suminyi
#	Modification time:	Sun Sep 30 06:50:58 2018

@<TRIPOS>MOLECULE
2br1_ligand
   50    53     1     1     0
SMALL
MMFF94_CHARGES


@<TRIPOS>ATOM
      1 CAB        18.9340   -8.1520   13.2510 C.3       1 MOL         0.2800 
      2 OAS        17.7610   -7.7300   12.5160 O.3       1 MOL        -0.3625 
      3 CAV        17.6600   -6.4710   11.9660 C.ar      1 MOL         0.0825 
      4 CAG        18.5210   -5.4240   12.3030 C.ar      1 MOL        -0.1500 
      5 CAK        18.3870   -4.1760   11.6990 C.ar      1 MOL        -0.1500 
      6 CAF        16.6520   -6.2620   11.0340 C.ar      1 MOL        -0.1500 
      7 CAJ        16.5110   -5.0130   10.4420 C.ar      1 MOL        -0.1500 
      8 CAX        17.3860   -3.9750   10.7490 C.ar      1 MOL         0.0540 
      9 CBA        17.2080   -2.7140   10.0830 C.2       1 MOL        -0.0540 
     10 CBC        16.0040   -1.9540   10.0000 C.ar      1 MOL         0.0000 
     11 CAY        14.7590   -2.0840   10.5650 C.ar      1 MOL         0.4100 
     12 NAQ        14.4410   -3.1080   11.3880 N.pl3     1 MOL        -0.8691 
     13 CAN        13.1060   -3.4260   11.9300 C.3       1 MOL         0.3691 
     14 CAM        12.6820   -2.4970   13.0900 C.3       1 MOL         0.2800 
     15 OAC        12.2380   -1.2480   12.5610 O.3       1 MOL        -0.6800 
     16 NAO        13.8100   -1.1730   10.3600 N.ar      1 MOL        -0.6200 
     17 CAL        14.1660   -0.1130    9.6080 C.ar      1 MOL         0.4700 
     18 NAP        15.3560    0.1050    9.0190 N.ar      1 MOL        -0.5670 
     19 CBB        16.2680   -0.8370    9.2670 C.ar      1 MOL         0.3970 
     20 OAT        17.5750   -0.7960    8.8400 O.3       1 MOL        -0.2800 
     21 CAZ        18.1280   -1.9610    9.3680 C.2       1 MOL         0.0870 
     22 CAW        19.5040   -2.3130    9.0130 C.ar      1 MOL         0.0530 
     23 CAH        20.3120   -1.3120    8.4550 C.ar      1 MOL        -0.1500 
     24 CAD        21.6520   -1.5300    8.1470 C.ar      1 MOL        -0.1500 
     25 CAU        22.2120   -2.7880    8.3450 C.ar      1 MOL         0.0825 
     26 OAR        23.5370   -3.0430    8.0620 O.3       1 MOL        -0.3625 
     27 CAA        24.5640   -2.0590    8.3320 C.3       1 MOL         0.2800 
     28 CAE        21.4090   -3.8200    8.8180 C.ar      1 MOL        -0.1500 
     29 CAI        20.0750   -3.5890    9.1530 C.ar      1 MOL        -0.1500 
     30 H1         18.8100   -9.1990   13.5400 H         1 MOL         0.0000 
     31 H2         19.0530   -7.5360   14.1480 H         1 MOL         0.0000 
     32 H3         19.8160   -8.0500   12.6120 H         1 MOL         0.0000 
     33 H4         19.3100   -5.5690   13.0350 H         1 MOL         0.1500 
     34 H5         19.0700   -3.3720   11.9760 H         1 MOL         0.1500 
     35 H6         16.0000   -7.0870   10.7600 H         1 MOL         0.1500 
     36 H7         15.7400   -4.8440    9.7020 H         1 MOL         0.1500 
     37 H8         15.2460   -3.6580   11.6840 H         1 MOL         0.4000 
     38 H9         13.1200   -4.4510   12.3100 H         1 MOL         0.0000 
     39 H10        12.3550   -3.3710   11.1340 H         1 MOL         0.0000 
     40 H11        13.5240   -2.3470   13.7730 H         1 MOL         0.0000 
     41 H12        11.8590   -2.9560   13.6450 H         1 MOL         0.0000 
     42 H13        12.8090   -1.0810   11.7500 H         1 MOL         0.4000 
     43 H14        13.3870    0.6170    9.4430 H         1 MOL         0.1500 
     44 H15        19.9070   -0.3270    8.2820 H         1 MOL         0.1500 
     45 H16        22.2560   -0.7080    7.7700 H         1 MOL         0.1500 
     46 H17        25.5420   -2.5210    8.1730 H         1 MOL         0.0000 
     47 H18        24.4830   -1.7220    9.3690 H         1 MOL         0.0000 
     48 H19        24.4490   -1.2090    7.6540 H         1 MOL         0.0000 
     49 H20        21.8340   -4.8130    8.9500 H         1 MOL         0.1500 
     50 H21        19.5060   -4.4450    9.4960 H         1 MOL         0.1500 
@<TRIPOS>BOND
     1    1    2 1    
     2    2    3 1    
     3    3    4 ar   
     4    3    6 ar   
     5    4    5 ar   
     6    5    8 ar   
     7    6    7 ar   
     8    7    8 ar   
     9    8    9 1    
    10    9   10 1    
    11    9   21 2    
    12   10   11 ar   
    13   10   19 ar   
    14   11   12 1    
    15   11   16 ar   
    16   12   13 1    
    17   13   14 1    
    18   14   15 1    
    19   16   17 ar   
    20   17   18 ar   
    21   18   19 ar   
    22   19   20 1    
    23   20   21 1    
    24   21   22 1    
    25   22   23 ar   
    26   22   29 ar   
    27   23   24 ar   
    28   24   25 ar   
    29   25   26 1    
    30   25   28 ar   
    31   26   27 1    
    32   28   29 ar   
    33    1   30 1    
    34    1   31 1    
    35    1   32 1    
    36    4   33 1    
    37    5   34 1    
    38    6   35 1    
    39    7   36 1    
    40   12   37 1    
    41   13   38 1    
    42   13   39 1    
    43   14   40 1    
    44   14   41 1    
    45   15   42 1    
    46   17   43 1    
    47   23   44 1    
    48   24   45 1    
    49   27   46 1    
    50   27   47 1    
    51   27   48 1    
    52   28   49 1    
    53   29   50 1    
@<TRIPOS>SUBSTRUCTURE
     1 MOL         1 PERM              0 ****  ****    0 ROOT 
@<TRIPOS>NORMAL
@<TRIPOS>ALT_TYPE
MMFF94_ALT_TYPE_SET 
MMFF94 1 CR 13 CR 14 CR 27 CR 21 C5A 19 C5A 9 C5B 10 C5B 3 CB 4 CB 5 CB \
6 CB 7 CB 8 CB 11 CB 17 CB 22 CB 23 CB 24 CB 25 CB 28 CB \
29 CB 30 HC 31 HC 32 HC 33 HC 34 HC 35 HC 36 HC 38 HC \
39 HC 40 HC 41 HC 43 HC 44 HC 45 HC 46 HC 47 HC 48 HC \
49 HC 50 HC 37 HNCC 42 HOR 20 OFUR 2 OC=C 26 OC=C 15 OR \
16 NPYD 18 NPYD 12 NC=N 
