#	Name:			2v7a_ligand
#	Creating user name:	suminyi
#	Creation time:		Sun Sep 30 06:51:10 2018

#	Modifying user name:	suminyi
#	Modification time:	Sun Sep 30 06:51:10 2018

@<TRIPOS>MOLECULE
2v7a_ligand
   66    70     1     1     0
SMALL
MMFF94_CHARGES


@<TRIPOS>ATOM
      1 N1        -41.4820  -46.3070  -10.6130 N.am      1 MOL        -0.6602 
      2 N2        -38.9510  -47.7760  -12.8030 N.pl3     1 MOL         0.2996 
      3 C3        -40.5120  -49.3010  -12.5680 C.2       1 MOL         0.3518 
      4 N4        -39.3200  -49.0580  -13.1400 N.2       1 MOL        -0.7068 
      5 N5        -41.1510  -50.5110  -12.6860 N.am      1 MOL        -0.4930 
      6 C6        -42.3080  -50.9270  -12.1480 C.2       1 MOL         0.5438 
      7 C7        -42.7710  -52.3190  -12.4820 C.ar      1 MOL         0.0862 
      8 O8        -42.9570  -50.2260  -11.4060 O.2       1 MOL        -0.5700 
      9 C9        -44.0190  -52.7420  -12.0180 C.ar      1 MOL        -0.1500 
     10 C10       -44.4590  -54.0470  -12.2300 C.ar      1 MOL        -0.1500 
     11 C11       -42.4260  -54.5410  -13.3800 C.ar      1 MOL        -0.1500 
     12 C12       -42.0060  -53.2220  -13.2250 C.ar      1 MOL        -0.1500 
     13 C13       -39.9300  -47.1990  -12.0450 C.2       1 MOL        -0.3316 
     14 C14       -40.8670  -48.1170  -11.8800 C.2       1 MOL        -0.1810 
     15 C15       -41.9530  -47.6720  -10.9790 C.3       1 MOL         0.4811 
     16 C16       -40.2030  -45.9460  -11.2920 C.3       1 MOL         0.4801 
     17 N17       -44.0360  -56.3270  -12.9620 N.pl3     1 MOL        -0.8382 
     18 C18       -44.9810  -56.9560  -12.0030 C.3       1 MOL         0.3691 
     19 C19       -44.2280  -57.9530  -11.0890 C.3       1 MOL         0.5030 
     20 N20       -43.4050  -58.9960  -11.8340 N.4       1 MOL        -0.9590 
     21 C21       -42.5160  -58.2680  -12.8420 C.3       1 MOL         0.5030 
     22 C22       -43.3050  -57.3220  -13.7830 C.3       1 MOL         0.3691 
     23 C23       -42.5940  -59.7890  -10.8170 C.3       1 MOL         0.5030 
     24 C24       -43.6450  -54.9950  -12.8610 C.ar      1 MOL         0.1000 
     25 C25       -42.0100  -45.5490   -9.6240 C.2       1 MOL         0.5690 
     26 O26       -41.4830  -44.4850   -9.3510 O.2       1 MOL        -0.5700 
     27 C27       -43.3680  -48.3840   -7.8580 C.ar      1 MOL        -0.1500 
     28 C28       -42.9490  -49.3400   -6.9370 C.ar      1 MOL        -0.1500 
     29 C29       -42.8150  -47.1020   -7.8360 C.ar      1 MOL        -0.1435 
     30 C31       -41.9730  -49.0180   -5.9950 C.ar      1 MOL        -0.1500 
     31 C33       -41.8670  -46.7730   -6.8650 C.ar      1 MOL        -0.1500 
     32 C20       -43.2400  -46.0670   -8.8690 C.3       1 MOL         0.4845 
     33 C35       -41.4400  -47.7330   -5.9540 C.ar      1 MOL        -0.1500 
     34 C36       -45.0860  -45.3610   -7.3890 C.3       1 MOL         0.2800 
     35 O34       -43.9690  -44.9790   -8.2260 O.3       1 MOL        -0.5600 
     36 H1        -38.0790  -47.3500  -13.1380 H         1 MOL         0.2700 
     37 H2        -40.6650  -51.1690  -13.2650 H         1 MOL         0.3700 
     38 H3        -44.6730  -52.0430  -11.4940 H         1 MOL         0.1500 
     39 H4        -45.4590  -54.2940  -11.8930 H         1 MOL         0.1500 
     40 H5        -41.7530  -55.2000  -13.9070 H         1 MOL         0.1500 
     41 H6        -41.0540  -52.9370  -13.6630 H         1 MOL         0.1500 
     42 H7        -42.9210  -47.6330  -11.4840 H         1 MOL         0.0000 
     43 H8        -42.0070  -48.3100  -10.0950 H         1 MOL         0.0000 
     44 H9        -39.4270  -45.7300  -10.5510 H         1 MOL         0.0000 
     45 H10       -40.3530  -45.0820  -11.9480 H         1 MOL         0.0000 
     46 H11       -45.7590  -57.4880  -12.5610 H         1 MOL         0.0000 
     47 H12       -45.4820  -56.2320  -11.3600 H         1 MOL         0.0000 
     48 H13       -44.9320  -58.4760  -10.4330 H         1 MOL         0.0000 
     49 H14       -43.5300  -57.3920  -10.4600 H         1 MOL         0.0000 
     50 H15       -44.0520  -59.6390  -12.3350 H         1 MOL         0.4500 
     51 H16       -41.9650  -59.0100  -13.4260 H         1 MOL         0.0000 
     52 H17       -41.7990  -57.6670  -12.2750 H         1 MOL         0.0000 
     53 H18       -42.6300  -56.8680  -14.5110 H         1 MOL         0.0000 
     54 H19       -44.0260  -57.9070  -14.3620 H         1 MOL         0.0000 
     55 H20       -43.2770  -60.3080  -10.1330 H         1 MOL         0.0000 
     56 H21       -41.9680  -59.0970  -10.2430 H         1 MOL         0.0000 
     57 H22       -41.9680  -60.5190  -11.3370 H         1 MOL         0.0000 
     58 H23       -44.1330  -48.6380   -8.5890 H         1 MOL         0.1500 
     59 H24       -43.3940  -50.3300   -6.9410 H         1 MOL         0.1500 
     60 H25       -41.6480  -49.7630   -5.2730 H         1 MOL         0.1500 
     61 H26       -41.4810  -45.7570   -6.7970 H         1 MOL         0.1500 
     62 H27       -43.9090  -46.5140   -9.6090 H         1 MOL         0.0000 
     63 H28       -40.7130  -47.4660   -5.1900 H         1 MOL         0.1500 
     64 H29       -45.5870  -44.4600   -7.0270 H         1 MOL         0.0000 
     65 H30       -44.7390  -45.9420   -6.5290 H         1 MOL         0.0000 
     66 H31       -45.7760  -45.9540   -7.9900 H         1 MOL         0.0000 
@<TRIPOS>BOND
     1    1   15 1    
     2    1   16 1    
     3   25    1 am   
     4    2    4 1    
     5   13    2 1    
     6    3    4 2    
     7    3    5 1    
     8   14    3 1    
     9    5    6 am   
    10    6    7 1    
    11    6    8 2    
    12    7    9 ar   
    13    7   12 ar   
    14    9   10 ar   
    15   10   24 ar   
    16   12   11 ar   
    17   11   24 ar   
    18   13   14 2    
    19   16   13 1    
    20   15   14 1    
    21   17   18 1    
    22   17   22 1    
    23   24   17 1    
    24   18   19 1    
    25   19   20 1    
    26   21   20 1    
    27   20   23 1    
    28   22   21 1    
    29   25   26 2    
    30   32   25 1    
    31   27   28 ar   
    32   29   27 ar   
    33   28   30 ar   
    34   29   31 ar   
    35   29   32 1    
    36   30   33 ar   
    37   31   33 ar   
    38   32   35 1    
    39   35   34 1    
    40    2   36 1    
    41    5   37 1    
    42    9   38 1    
    43   10   39 1    
    44   11   40 1    
    45   12   41 1    
    46   15   42 1    
    47   15   43 1    
    48   16   44 1    
    49   16   45 1    
    50   18   46 1    
    51   18   47 1    
    52   19   48 1    
    53   19   49 1    
    54   20   50 1    
    55   21   51 1    
    56   21   52 1    
    57   22   53 1    
    58   22   54 1    
    59   23   55 1    
    60   23   56 1    
    61   23   57 1    
    62   27   58 1    
    63   28   59 1    
    64   30   60 1    
    65   31   61 1    
    66   32   62 1    
    67   33   63 1    
    68   34   64 1    
    69   34   65 1    
    70   34   66 1    
@<TRIPOS>SUBSTRUCTURE
     1 MOL         1 PERM              0 ****  ****    0 ROOT 
@<TRIPOS>NORMAL
@<TRIPOS>ALT_TYPE
MMFF94_ALT_TYPE_SET 
MMFF94 15 CR 16 CR 18 CR 19 CR 21 CR 22 CR 23 CR 32 CR 34 CR 13 C5A \
3 C5B 14 C5B 7 CB 9 CB 10 CB 11 CB 12 CB 24 CB 27 CB \
28 CB 29 CB 30 CB 31 CB 33 CB 25 C=ON 6 C=ON 38 HC 39 HC \
40 HC 41 HC 42 HC 43 HC 44 HC 45 HC 46 HC 47 HC 48 HC \
49 HC 51 HC 52 HC 53 HC 54 HC 55 HC 56 HC 57 HC 58 HC \
59 HC 60 HC 61 HC 62 HC 63 HC 64 HC 65 HC 66 HC 36 HPYL \
37 HNCN 50 HNR+ 26 O=CN 8 O=CN 35 OR 2 NPYL 4 N5A 20 NR+ \
1 NC=O 5 NC=O 17 NC=C 
