#	Name:			2xii_ligand
#	Creating user name:	suminyi
#	Creation time:		Sun Sep 30 06:51:13 2018

#	Modifying user name:	suminyi
#	Modification time:	Sun Sep 30 06:51:13 2018

@<TRIPOS>MOLECULE
2xii_ligand
   51    54     1     1     0
SMALL
MMFF94_CHARGES


@<TRIPOS>ATOM
      1 CAK       -30.8580    3.2470   24.0940 C.ar      1 MOL         0.0862 
      2 CAQ       -31.6640    3.9770   25.1370 C.2       1 MOL         0.3976 
      3 OBB       -31.6180    3.9120   26.3490 O.2       1 MOL        -0.5700 
      4 CAN       -32.5670    4.8740   24.3750 C.ar      1 MOL         0.0862 
      5 CAS       -33.4950    5.7790   24.8600 C.ar      1 MOL        -0.1500 
      6 CAH       -34.1640    6.5820   23.9350 C.ar      1 MOL        -0.1500 
      7 CAC       -33.9560    6.4310   22.5600 C.ar      1 MOL        -0.1500 
      8 CAR       -33.0490    5.4820   22.0790 C.ar      1 MOL        -0.1500 
      9 CAM       -32.3450    4.7200   23.0170 C.ar      1 MOL         0.0000 
     10 CAL       -31.2980    3.6890   22.8390 C.ar      1 MOL         0.0000 
     11 CAO       -30.7770    3.1800   21.6490 C.ar      1 MOL        -0.1500 
     12 CAT       -29.8140    2.1780   21.7370 C.ar      1 MOL        -0.1500 
     13 CAP       -29.3790    1.7210   22.9840 C.ar      1 MOL        -0.1500 
     14 CAJ       -29.8560    2.2600   24.1890 C.ar      1 MOL         0.0862 
     15 CAI       -29.1880    1.7670   25.4520 C.2       1 MOL         0.5438 
     16 OAZ       -28.4900    0.7680   25.4690 O.2       1 MOL        -0.5700 
     17 NAV       -29.2980    2.5140   26.5600 N.am      1 MOL        -0.7301 
     18 CAD       -28.5320    2.2950   27.7860 C.3       1 MOL         0.3001 
     19 CAA       -27.0230    2.3340   27.5320 C.3       1 MOL         0.5030 
     20 NAW       -26.4970    3.6990   27.1500 N.4       1 MOL        -0.9060 
     21 CAE       -25.0160    3.6400   26.8510 C.3       1 MOL         0.5030 
     22 CAU       -24.4280    5.0410   26.6080 C.3       1 MOL         0.0000 
     23 CAG       -24.1730    2.8560   27.8940 C.3       1 MOL         0.2800 
     24 OAX       -24.0020    3.5520   29.1130 O.3       1 MOL        -0.6800 
     25 CAF       -24.8390    1.5370   28.3180 C.3       1 MOL         0.2800 
     26 OAY       -24.1520    0.9630   29.4460 O.3       1 MOL        -0.6800 
     27 CAB       -26.2630    1.8730   28.7740 C.3       1 MOL         0.2800 
     28 OBA       -26.7620    0.7290   29.4290 O.3       1 MOL        -0.6800 
     29 H1        -33.6590    5.8730   25.9320 H         1 MOL         0.1500 
     30 H2        -34.8320    7.3550   24.2800 H         1 MOL         0.1500 
     31 H3        -34.4990    7.0670   21.8610 H         1 MOL         0.1500 
     32 H4        -32.8810    5.3710   21.0120 H         1 MOL         0.1500 
     33 H5        -31.1100    3.5480   20.6830 H         1 MOL         0.1500 
     34 H6        -29.3750    1.7680   20.8310 H         1 MOL         0.1500 
     35 H7        -28.5880    0.9760   23.0230 H         1 MOL         0.1500 
     36 H8        -29.9780    3.2570   26.5580 H         1 MOL         0.3700 
     37 H9        -28.8260    1.3250   28.2010 H         1 MOL         0.0000 
     38 H10       -28.7540    3.0840   28.5060 H         1 MOL         0.0000 
     39 H11       -26.8100    1.6550   26.6970 H         1 MOL         0.0000 
     40 H12       -26.7170    4.3850   27.9260 H         1 MOL         0.4500 
     41 H13       -26.9770    3.9910   26.2650 H         1 MOL         0.4500 
     42 H14       -24.9370    3.0790   25.9120 H         1 MOL         0.0000 
     43 H15       -23.3630    4.9770   26.3780 H         1 MOL         0.0000 
     44 H16       -24.5540    5.6740   27.4880 H         1 MOL         0.0000 
     45 H17       -24.9240    5.5210   25.7610 H         1 MOL         0.0000 
     46 H18       -23.1950    2.6550   27.4720 H         1 MOL         0.0000 
     47 H19       -23.4730    2.8570   29.5770 H         1 MOL         0.4000 
     48 H20       -24.8610    0.8320   27.4770 H         1 MOL         0.0000 
     49 H21       -23.4320    0.2780   29.1220 H         1 MOL         0.4000 
     50 H22       -26.2570    2.6920   29.5010 H         1 MOL         0.0000 
     51 H23       -25.9700    0.5540   30.0010 H         1 MOL         0.4000 
@<TRIPOS>BOND
     1    1    2 1    
     2    1   10 ar   
     3    1   14 ar   
     4    2    3 2    
     5    2    4 1    
     6    4    5 ar   
     7    4    9 ar   
     8    5    6 ar   
     9    6    7 ar   
    10    7    8 ar   
    11    8    9 ar   
    12    9   10 1    
    13   10   11 ar   
    14   11   12 ar   
    15   12   13 ar   
    16   13   14 ar   
    17   14   15 1    
    18   15   16 2    
    19   15   17 am   
    20   17   18 1    
    21   18   19 1    
    22   19   20 1    
    23   19   27 1    
    24   20   21 1    
    25   21   22 1    
    26   21   23 1    
    27   23   24 1    
    28   23   25 1    
    29   25   26 1    
    30   25   27 1    
    31   27   28 1    
    32    5   29 1    
    33    6   30 1    
    34    7   31 1    
    35    8   32 1    
    36   11   33 1    
    37   12   34 1    
    38   13   35 1    
    39   17   36 1    
    40   18   37 1    
    41   18   38 1    
    42   19   39 1    
    43   20   40 1    
    44   20   41 1    
    45   21   42 1    
    46   22   43 1    
    47   22   44 1    
    48   22   45 1    
    49   23   46 1    
    50   24   47 1    
    51   25   48 1    
    52   26   49 1    
    53   27   50 1    
    54   28   51 1    
@<TRIPOS>SUBSTRUCTURE
     1 MOL         1 PERM              0 ****  ****    0 ROOT 
@<TRIPOS>NORMAL
@<TRIPOS>ALT_TYPE
MMFF94_ALT_TYPE_SET 
MMFF94 18 CR 19 CR 21 CR 22 CR 23 CR 25 CR 27 CR 1 CB 4 CB 5 CB 6 CB \
7 CB 8 CB 9 CB 10 CB 11 CB 12 CB 13 CB 14 CB 15 C=ON 2 C=OR \
29 HC 30 HC 31 HC 32 HC 33 HC 34 HC 35 HC 37 HC 38 HC \
39 HC 42 HC 43 HC 44 HC 45 HC 46 HC 48 HC 50 HC 36 HNCO \
40 HNR+ 41 HNR+ 47 HOR 49 HOR 51 HOR 16 O=CN 3 O=CR \
24 OR 26 OR 28 OR 20 NR+ 17 NC=O 
