#	Name:			4k77_ligand
#	Creating user name:	suminyi
#	Creation time:		Sun Sep 30 06:51:02 2018

#	Modifying user name:	suminyi
#	Modification time:	Sun Sep 30 06:51:02 2018

@<TRIPOS>MOLECULE
4k77_ligand
   34    36     1     1     0
SMALL
MMFF94_CHARGES


@<TRIPOS>ATOM
      1 C1         16.9670    3.4700    1.4200 C.2       1 MOL        -0.1784 
      2 C2         17.5440    2.2120    1.3520 C.2       1 MOL        -0.0410 
      3 N3         16.9020    1.1990    0.6480 N.am      1 MOL        -0.5390 
      4 C5         15.7280    1.3050    0.0090 C.2       1 MOL         0.5438 
      5 O6         15.3190    0.3240   -0.5820 O.2       1 MOL        -0.5700 
      6 C7         15.0460    2.6540    0.0830 C.ar      1 MOL         0.3962 
      7 C8         15.6800    3.6880    0.7700 C.ar      1 MOL         0.0284 
      8 C9         15.0140    4.9120    0.7910 C.ar      1 MOL         0.4100 
      9 N10        13.8210    5.0900    0.2260 N.ar      1 MOL        -0.6200 
     10 C11        13.2750    4.0350   -0.3800 C.ar      1 MOL         0.4700 
     11 N12        13.8400    2.8290   -0.5080 N.ar      1 MOL        -0.6200 
     12 N13        15.5000    5.9970    1.4520 N.pl3     1 MOL        -0.8691 
     13 C14        14.8600    7.3270    1.4220 C.3       1 MOL         0.3691 
     14 C15        13.9550    7.5140    2.6580 C.3       1 MOL         0.0000 
     15 C16        13.3180    8.9200    2.6630 C.3       1 MOL         0.0000 
     16 C17        14.4050   10.0150    2.6370 C.3       1 MOL         0.0000 
     17 C18        15.3190    9.8500    1.4080 C.3       1 MOL         0.0000 
     18 C19        15.9330    8.4340    1.3540 C.3       1 MOL         0.0000 
     19 H1         17.4750    4.2520    1.9810 H         1 MOL         0.1500 
     20 H2         18.4790    1.9240    1.8220 H         1 MOL         0.1500 
     21 H3         17.3070    0.2660    0.5940 H         1 MOL         0.3700 
     22 H4         12.3000    4.1790   -0.8370 H         1 MOL         0.1500 
     23 H5         16.0980    5.7960    2.2430 H         1 MOL         0.4000 
     24 H6         14.2370    7.4410    0.5260 H         1 MOL         0.0000 
     25 H7         14.5390    7.3760    3.5720 H         1 MOL         0.0000 
     26 H8         13.1660    6.7580    2.6540 H         1 MOL         0.0000 
     27 H9         12.6950    9.0390    3.5510 H         1 MOL         0.0000 
     28 H10        12.6650    9.0290    1.7930 H         1 MOL         0.0000 
     29 H11        15.0060    9.9570    3.5490 H         1 MOL         0.0000 
     30 H12        13.9370   11.0020    2.6190 H         1 MOL         0.0000 
     31 H13        16.1160   10.5960    1.4380 H         1 MOL         0.0000 
     32 H14        14.7380   10.0280    0.5000 H         1 MOL         0.0000 
     33 H15        16.4660    8.3430    0.4130 H         1 MOL         0.0000 
     34 H16        16.6510    8.3070    2.1680 H         1 MOL         0.0000 
@<TRIPOS>BOND
     1    1    2 2    
     2    1    7 1    
     3    2    3 1    
     4    3    4 am   
     5    4    5 2    
     6    4    6 1    
     7    6    7 ar   
     8    6   11 ar   
     9    7    8 ar   
    10    8    9 ar   
    11    8   12 1    
    12    9   10 ar   
    13   10   11 ar   
    14   12   13 1    
    15   13   14 1    
    16   13   18 1    
    17   14   15 1    
    18   15   16 1    
    19   16   17 1    
    20   17   18 1    
    21    1   19 1    
    22    2   20 1    
    23    3   21 1    
    24   10   22 1    
    25   12   23 1    
    26   13   24 1    
    27   14   25 1    
    28   14   26 1    
    29   15   27 1    
    30   15   28 1    
    31   16   29 1    
    32   16   30 1    
    33   17   31 1    
    34   17   32 1    
    35   18   33 1    
    36   18   34 1    
@<TRIPOS>SUBSTRUCTURE
     1 MOL         1 PERM              0 ****  ****    0 ROOT 
@<TRIPOS>NORMAL
@<TRIPOS>ALT_TYPE
MMFF94_ALT_TYPE_SET 
MMFF94 13 CR 14 CR 15 CR 16 CR 17 CR 18 CR 6 CB 7 CB 8 CB 10 CB 4 C=ON \
1 C=C 2 C=C 19 HC 20 HC 22 HC 24 HC 25 HC 26 HC 27 HC \
28 HC 29 HC 30 HC 31 HC 32 HC 33 HC 34 HC 21 HNCC 23 HNCC \
5 O=CN 9 NPYD 11 NPYD 3 NC=O 12 NC=N 
