#	Name:			4m0y_ligand
#	Creating user name:	suminyi
#	Creation time:		Sun Sep 30 06:50:56 2018

#	Modifying user name:	suminyi
#	Modification time:	Sun Sep 30 06:50:56 2018

@<TRIPOS>MOLECULE
4m0y_ligand
   35    37     1     1     0
SMALL
MMFF94_CHARGES


@<TRIPOS>ATOM
      1 C1         10.5750    8.5850   22.6760 C.ar      1 MOL        -0.1500 
      2 C2          9.7690    8.0130   23.6520 C.ar      1 MOL        -0.1500 
      3 C3          8.6370    7.2910   23.2860 C.ar      1 MOL        -0.1500 
      4 C4          8.3000    7.1100   21.9330 C.ar      1 MOL         0.0000 
      5 C5          9.1000    7.7330   20.9580 C.ar      1 MOL         0.0000 
      6 C6         10.2340    8.4570   21.3330 C.ar      1 MOL        -0.1500 
      7 C7          8.8010    7.5950   19.6010 C.ar      1 MOL        -0.1500 
      8 C8          7.7160    6.8240   19.1950 C.ar      1 MOL        -0.1500 
      9 C9          6.9350    6.1760   20.1480 C.ar      1 MOL        -0.1500 
     10 C10         7.2190    6.3020   21.5110 C.ar      1 MOL        -0.0230 
     11 N1          6.4680    5.5590   22.3760 N.pl3     1 MOL         0.5926 
     12 C11         7.0820    4.7170   23.2710 C.2       1 MOL        -0.3016 
     13 C12         6.0430    4.1520   23.9340 C.2       1 MOL         0.0630 
     14 C13         4.8270    4.5710   23.3170 C.2       1 MOL         0.2028 
     15 N2          5.1070    5.4480   22.3240 N.2       1 MOL        -0.7068 
     16 C14         3.4940    4.0850   23.7380 C.2       1 MOL         0.7160 
     17 O1          3.2750    3.4350   24.7330 O.2       1 MOL        -0.5700 
     18 N3          2.4680    4.3830   22.9390 N.am      1 MOL        -0.8000 
     19 N4          6.1930    3.2590   24.9950 N.am      1 MOL        -0.4930 
     20 C15         7.3060    2.9710   25.6820 C.2       1 MOL         0.6900 
     21 O2          8.3860    3.4800   25.5150 O.2       1 MOL        -0.5700 
     22 N5          7.1510    2.0500   26.6130 N.am      1 MOL        -0.8000 
     23 H          11.4840    9.1090   22.9560 H         1 MOL         0.1500 
     24 H1         10.0350    8.0990   24.7040 H         1 MOL         0.1500 
     25 H2          8.0470    6.8560   24.0880 H         1 MOL         0.1500 
     26 H3         10.8880    8.8940   20.5820 H         1 MOL         0.1500 
     27 H4          9.4480    8.0450   18.8530 H         1 MOL         0.1500 
     28 H5          7.5270    6.6610   18.1340 H         1 MOL         0.1500 
     29 H6          6.1300    5.5180   19.8230 H         1 MOL         0.1500 
     30 H7          8.1600    4.6300   23.3780 H         1 MOL         0.1500 
     31 H8          1.5520    4.0200   23.1940 H         1 MOL         0.3700 
     32 H9          2.6330    4.9130   22.1030 H         1 MOL         0.3700 
     33 H10         5.3690    2.7800   25.3280 H         1 MOL         0.3700 
     34 H11         7.9850    1.7490   27.0870 H         1 MOL         0.3700 
     35 H12         6.3260    1.4690   26.6020 H         1 MOL         0.3700 
@<TRIPOS>BOND
     1    1    2 ar   
     2    1    6 ar   
     3    2    3 ar   
     4    3    4 ar   
     5    4    5 ar   
     6    4   10 ar   
     7    5    6 ar   
     8    5    7 ar   
     9    7    8 ar   
    10    8    9 ar   
    11    9   10 ar   
    12   10   11 1    
    13   11   12 1    
    14   11   15 1    
    15   12   13 2    
    16   13   14 1    
    17   13   19 1    
    18   14   15 2    
    19   14   16 1    
    20   16   17 2    
    21   16   18 am   
    22   19   20 am   
    23   20   21 2    
    24   20   22 am   
    25    1   23 1    
    26    2   24 1    
    27    3   25 1    
    28    6   26 1    
    29    7   27 1    
    30    8   28 1    
    31    9   29 1    
    32   12   30 1    
    33   18   31 1    
    34   18   32 1    
    35   19   33 1    
    36   22   34 1    
    37   22   35 1    
@<TRIPOS>SUBSTRUCTURE
     1 MOL         1 PERM              0 ****  ****    0 ROOT 
@<TRIPOS>NORMAL
@<TRIPOS>ALT_TYPE
MMFF94_ALT_TYPE_SET 
MMFF94 12 C5A 13 C5B 14 C5B 1 CB 2 CB 3 CB 4 CB 5 CB 6 CB 7 CB 8 CB \
9 CB 10 CB 20 CONN 16 C=ON 23 HC 24 HC 25 HC 26 HC 27 HC \
28 HC 29 HC 30 HC 33 HNCC 31 HNCO 32 HNCO 34 HNCO 35 HNCO \
17 O=CN 21 O=CN 11 NPYL 15 N5A 18 NC=O 19 NC=O 22 NC=O \

