#	Name:			3coy_ligand
#	Creating user name:	suminyi
#	Creation time:		Sun Sep 30 06:51:13 2018

#	Modifying user name:	suminyi
#	Modification time:	Sun Sep 30 06:51:13 2018

@<TRIPOS>MOLECULE
3coy_ligand
   57    59     1     1     0
SMALL
MMFF94_CHARGES


@<TRIPOS>ATOM
      1 C1         16.1710    9.6810    5.1520 C.2       1 MOL         0.7453 
      2 C2         13.0120    9.4470   -4.6770 C.ar      1 MOL         0.4700 
      3 C3         16.3170    9.2870    6.6270 C.3       1 MOL         0.5640 
      4 C4         14.1000    9.9940   -2.7600 C.ar      1 MOL         0.1054 
      5 C5         15.1020   10.5730   -3.4650 C.ar      1 MOL         0.2272 
      6 C6         14.9650   10.5430   -4.8430 C.ar      1 MOL         0.4100 
      7 C7         14.9310    9.2680    7.3740 C.3       1 MOL         0.0000 
      8 N1         13.9490    9.9800   -5.4790 N.ar      1 MOL        -0.6200 
      9 N2         16.0460   10.9680    4.8850 N.am      1 MOL        -0.7943 
     10 O1         16.2300    8.8410    4.2850 O.2       1 MOL        -0.5700 
     11 C8         15.6170   10.8010   -1.4390 C.2       1 MOL         0.0365 
     12 O2         14.5670    7.3270    0.0540 O.3       1 MOL        -0.6800 
     13 N3         13.0620    9.3830   -3.3360 N.ar      1 MOL        -0.5670 
     14 C9         13.9610    8.2620    6.7240 C.3       1 MOL         0.0000 
     15 C10        15.1180    8.8700    8.8570 C.3       1 MOL         0.0000 
     16 C11        14.2340   10.6580    7.3800 C.3       1 MOL         0.0000 
     17 N4         17.1700    8.0150    6.8110 N.4       1 MOL        -0.8530 
     18 S1         16.2310   11.6980    3.4260 S.o2      1 MOL         1.6217 
     19 O1A        17.6050   11.4980    3.0940 O.2       1 MOL        -0.6500 
     20 O2A        15.6930   12.9660    3.7850 O.2       1 MOL        -0.6500 
     21 O5         15.2200   10.9000    2.5550 O.3       1 MOL        -0.4637 
     22 C25        13.7960   11.0490    2.8310 C.3       1 MOL         0.2800 
     23 C24        13.0400   10.1240    1.8640 C.3       1 MOL         0.2800 
     24 C23        13.6690    8.7140    1.8580 C.3       1 MOL         0.2800 
     25 O3         12.6950    7.6870    1.7730 O.3       1 MOL        -0.6800 
     26 C22        14.4530    8.6710    0.5520 C.3       1 MOL         0.2800 
     27 C21        13.6480    9.5940   -0.3680 C.3       1 MOL         0.5356 
     28 O4         13.2170   10.6500    0.5180 O.3       1 MOL        -0.5600 
     29 N9         14.4110   10.1330   -1.4770 N.pl3     1 MOL         0.0476 
     30 N7         16.0890   11.0610   -2.6840 N.2       1 MOL        -0.5653 
     31 N6         15.8640   11.0320   -5.6870 N.pl3     1 MOL        -0.9000 
     32 H1         12.1590    8.9750   -5.1600 H         1 MOL         0.1500 
     33 H2         16.9180   10.0900    7.0640 H         1 MOL         0.0000 
     34 H3         15.9610   11.6660    5.5820 H         1 MOL         0.4200 
     35 H4         16.1150   11.0390   -0.5110 H         1 MOL         0.1500 
     36 H5         15.5890    7.2040    0.0110 H         1 MOL         0.4000 
     37 H6         13.0020    8.2800    7.2490 H         1 MOL         0.0000 
     38 H7         14.3490    7.2440    6.7760 H         1 MOL         0.0000 
     39 H8         13.7610    8.5040    5.6760 H         1 MOL         0.0000 
     40 H9         15.7420    9.6060    9.3690 H         1 MOL         0.0000 
     41 H10        15.5630    7.8780    8.9550 H         1 MOL         0.0000 
     42 H11        14.1550    8.8420    9.3740 H         1 MOL         0.0000 
     43 H12        13.9130   10.9620    6.3820 H         1 MOL         0.0000 
     44 H13        14.8810   11.4330    7.7960 H         1 MOL         0.0000 
     45 H14        13.3290   10.6390    7.9940 H         1 MOL         0.0000 
     46 H15        17.9520    7.9890    6.1340 H         1 MOL         0.4500 
     47 H16        16.6580    7.1170    6.5900 H         1 MOL         0.4500 
     48 H17        17.6290    7.9720    7.7500 H         1 MOL         0.4500 
     49 H18        13.4680   12.0830    2.6890 H         1 MOL         0.0000 
     50 H19        13.5690   10.7440    3.8560 H         1 MOL         0.0000 
     51 H20        11.9750   10.0860    2.1180 H         1 MOL         0.0000 
     52 H21        14.3260    8.5500    2.7140 H         1 MOL         0.0000 
     53 H22        13.1660    7.0440    1.1750 H         1 MOL         0.4000 
     54 H23        15.4450    9.1030    0.7200 H         1 MOL         0.0000 
     55 H24        12.7560    9.0850   -0.7670 H         1 MOL         0.0000 
     56 H25        15.6820   10.9110   -6.6720 H         1 MOL         0.4000 
     57 H26        16.7980   11.2350   -5.3370 H         1 MOL         0.4000 
@<TRIPOS>BOND
     1    1    3 1    
     2    9    1 am   
     3    1   10 2    
     4    2    8 ar   
     5   13    2 ar   
     6    3    7 1    
     7    3   17 1    
     8    4    5 ar   
     9    4   13 ar   
    10   29    4 1    
    11    5    6 ar   
    12   30    5 1    
    13    6    8 ar   
    14    6   31 1    
    15    7   14 1    
    16    7   15 1    
    17    7   16 1    
    18   18    9 am   
    19   29   11 1    
    20   11   30 2    
    21   26   12 1    
    22   18   19 2    
    23   18   20 2    
    24   21   18 1    
    25   22   21 1    
    26   23   22 1    
    27   23   24 1    
    28   28   23 1    
    29   24   25 1    
    30   26   24 1    
    31   27   26 1    
    32   27   28 1    
    33   27   29 1    
    34    2   32 1    
    35    3   33 1    
    36    9   34 1    
    37   11   35 1    
    38   12   36 1    
    39   14   37 1    
    40   14   38 1    
    41   14   39 1    
    42   15   40 1    
    43   15   41 1    
    44   15   42 1    
    45   16   43 1    
    46   16   44 1    
    47   16   45 1    
    48   17   46 1    
    49   17   47 1    
    50   17   48 1    
    51   22   49 1    
    52   22   50 1    
    53   23   51 1    
    54   24   52 1    
    55   25   53 1    
    56   26   54 1    
    57   27   55 1    
    58   31   56 1    
    59   31   57 1    
@<TRIPOS>SUBSTRUCTURE
     1 MOL         1 PERM              0 ****  ****    0 ROOT 
@<TRIPOS>NORMAL
@<TRIPOS>ALT_TYPE
MMFF94_ALT_TYPE_SET 
MMFF94 3 CR 7 CR 14 CR 15 CR 16 CR 22 CR 23 CR 24 CR 26 CR 27 CR 11 C5A \
4 C5A 5 C5B 2 CB 6 CB 1 C=ON 32 HC 33 HC 35 HC 37 HC \
38 HC 39 HC 40 HC 41 HC 42 HC 43 HC 44 HC 45 HC 49 HC \
50 HC 51 HC 52 HC 54 HC 55 HC 56 HNCC 57 HNCC 34 HNCO \
46 HNR+ 47 HNR+ 48 HNR+ 36 HOR 53 HOR 10 O=CN 19 O2S \
20 O2S 21 -OS 12 OR 25 OR 28 OR 8 NPYD 13 NPYD 29 NPYL \
30 N5B 17 NR+ 9 NSO3 31 NC=N 18 SO3 
