#	Name:			3coy_ligand
#	Creating user name:	suminyi
#	Creation time:		Sun Sep 30 06:48:57 2018

#	Modifying user name:	suminyi
#	Modification time:	Sun Sep 30 06:48:57 2018

@<TRIPOS>MOLECULE
3coy_ligand
   57    59     1     1     0
SMALL
MMFF94_CHARGES


@<TRIPOS>ATOM
      1 C1         15.9780    9.7850    5.1690 C.2       1 MOL         0.7453 
      2 C2         12.9040    9.1740   -4.7500 C.ar      1 MOL         0.4700 
      3 C3         15.9780    9.3600    6.6230 C.3       1 MOL         0.5640 
      4 C4         14.0430    9.9190   -2.8510 C.ar      1 MOL         0.1054 
      5 C5         15.0840   10.4280   -3.6300 C.ar      1 MOL         0.2272 
      6 C6         14.9950   10.2820   -5.0020 C.ar      1 MOL         0.4100 
      7 C7         14.6110    9.3010    7.3270 C.3       1 MOL         0.0000 
      8 N1         13.8950    9.6540   -5.5200 N.ar      1 MOL        -0.6200 
      9 N2         16.0410   11.1200    4.9100 N.am      1 MOL        -0.7943 
     10 O1         15.9810    8.9220    4.2910 O.2       1 MOL        -0.5700 
     11 C8         15.5520   10.8080   -1.5320 C.2       1 MOL         0.0365 
     12 O2         14.3440    7.4730    0.0010 O.3       1 MOL        -0.6800 
     13 N3         12.9630    9.2950   -3.4200 N.ar      1 MOL        -0.5670 
     14 C9         13.6750    8.3350    6.6490 C.3       1 MOL         0.0000 
     15 C10        14.8150    8.7990    8.7460 C.3       1 MOL         0.0000 
     16 C11        13.9180   10.6620    7.4310 C.3       1 MOL         0.0000 
     17 N4         16.7390    8.0470    6.8430 N.4       1 MOL        -0.8530 
     18 S1         16.1190   11.7770    3.5160 S.o2      1 MOL         1.6217 
     19 O1A        17.3970   11.5100    2.9350 O.2       1 MOL        -0.6500 
     20 O2A        15.8100   13.1830    3.5890 O.2       1 MOL        -0.6500 
     21 O5         15.0660   11.1550    2.4350 O.3       1 MOL        -0.4637 
     22 C25        13.6620   11.3080    2.6870 C.3       1 MOL         0.2800 
     23 C24        12.9450   10.3860    1.7260 C.3       1 MOL         0.2800 
     24 C23        13.5110    8.9740    1.7970 C.3       1 MOL         0.2800 
     25 O3         12.4460    8.0410    1.8130 O.3       1 MOL        -0.6800 
     26 C22        14.2850    8.8210    0.4980 C.3       1 MOL         0.2800 
     27 C21        13.5160    9.7630   -0.4270 C.3       1 MOL         0.5356 
     28 O4         13.1860   10.8710    0.3920 O.3       1 MOL        -0.5600 
     29 N9         14.3640   10.1590   -1.5780 N.pl3     1 MOL         0.0476 
     30 N7         16.0070   10.9830   -2.8040 N.2       1 MOL        -0.5653 
     31 N6         15.9960   10.7380   -5.8040 N.pl3     1 MOL        -0.9000 
     32 H1         12.0522    8.6861   -5.2097 H         1 MOL         0.1500 
     33 H2         16.5466   10.1406    7.1496 H         1 MOL         0.0000 
     34 H3         16.0363   11.7341    5.6992 H         1 MOL         0.4200 
     35 H4         16.0602   11.1361   -0.6265 H         1 MOL         0.1500 
     36 H5         13.4626    7.1574   -0.1607 H         1 MOL         0.4000 
     37 H6         12.7124    8.3225    7.1812 H         1 MOL         0.0000 
     38 H7         14.1149    7.3269    6.6633 H         1 MOL         0.0000 
     39 H8         13.5141    8.6501    5.6075 H         1 MOL         0.0000 
     40 H9         15.4955    9.4779    9.2808 H         1 MOL         0.0000 
     41 H10        15.2509    7.7895    8.7187 H         1 MOL         0.0000 
     42 H11        13.8463    8.7662    9.2662 H         1 MOL         0.0000 
     43 H12        13.7493   11.0656    6.4217 H         1 MOL         0.0000 
     44 H13        14.5542   11.3548    8.0013 H         1 MOL         0.0000 
     45 H14        12.9525   10.5436    7.9446 H         1 MOL         0.0000 
     46 H15        17.6325    8.0947    6.3787 H         1 MOL         0.4500 
     47 H16        16.2041    7.2811    6.4644 H         1 MOL         0.4500 
     48 H17        16.8808    7.9022    7.8304 H         1 MOL         0.4500 
     49 H18        13.3567   12.3501    2.5116 H         1 MOL         0.0000 
     50 H19        13.4304   11.0278    3.7252 H         1 MOL         0.0000 
     51 H20        11.8679   10.3738    1.9489 H         1 MOL         0.0000 
     52 H21        14.1588    8.8394    2.6758 H         1 MOL         0.0000 
     53 H22        12.7989    7.1600    1.8573 H         1 MOL         0.4000 
     54 H23        15.3176    9.1759    0.6310 H         1 MOL         0.0000 
     55 H24        12.6020    9.2788   -0.8013 H         1 MOL         0.0000 
     56 H25        15.9277   10.6282   -6.8259 H         1 MOL         0.4000 
     57 H26        16.8217   11.1928   -5.3890 H         1 MOL         0.4000 
@<TRIPOS>BOND
     1    1    3 1    
     2    9    1 am   
     3    1   10 2    
     4    2    8 ar   
     5   13    2 ar   
     6    3    7 1    
     7    3   17 1    
     8    4    5 ar   
     9    4   13 ar   
    10   29    4 1    
    11    5    6 ar   
    12   30    5 1    
    13    6    8 ar   
    14    6   31 1    
    15    7   14 1    
    16    7   15 1    
    17    7   16 1    
    18   18    9 am   
    19   29   11 1    
    20   11   30 2    
    21   26   12 1    
    22   18   19 2    
    23   18   20 2    
    24   21   18 1    
    25   22   21 1    
    26   23   22 1    
    27   23   24 1    
    28   28   23 1    
    29   24   25 1    
    30   26   24 1    
    31   27   26 1    
    32   27   28 1    
    33   27   29 1    
    34    2   32 1    
    35    3   33 1    
    36    9   34 1    
    37   11   35 1    
    38   12   36 1    
    39   14   37 1    
    40   14   38 1    
    41   14   39 1    
    42   15   40 1    
    43   15   41 1    
    44   15   42 1    
    45   16   43 1    
    46   16   44 1    
    47   16   45 1    
    48   17   46 1    
    49   17   47 1    
    50   17   48 1    
    51   22   49 1    
    52   22   50 1    
    53   23   51 1    
    54   24   52 1    
    55   25   53 1    
    56   26   54 1    
    57   27   55 1    
    58   31   56 1    
    59   31   57 1    
@<TRIPOS>SUBSTRUCTURE
     1 MOL         1 PERM              0 ****  ****    0 ROOT 
@<TRIPOS>NORMAL
@<TRIPOS>ALT_TYPE
MMFF94_ALT_TYPE_SET 
MMFF94 3 CR 7 CR 14 CR 15 CR 16 CR 22 CR 23 CR 24 CR 26 CR 27 CR 11 C5A \
4 C5A 5 C5B 2 CB 6 CB 1 C=ON 32 HC 33 HC 35 HC 37 HC \
38 HC 39 HC 40 HC 41 HC 42 HC 43 HC 44 HC 45 HC 49 HC \
50 HC 51 HC 52 HC 54 HC 55 HC 56 HNCC 57 HNCC 34 HNCO \
46 HNR+ 47 HNR+ 48 HNR+ 36 HOR 53 HOR 10 O=CN 19 O2S \
20 O2S 21 -OS 12 OR 25 OR 28 OR 8 NPYD 13 NPYD 29 NPYL \
30 N5B 17 NR+ 9 NSO3 31 NC=N 18 SO3 
