#	Name:			1ydr_ligand
#	Creating user name:	suminyi
#	Creation time:		Sun Sep 30 06:48:43 2018

#	Modifying user name:	suminyi
#	Modification time:	Sun Sep 30 06:48:43 2018

@<TRIPOS>MOLECULE
1ydr_ligand
   38    40     1     1     0
SMALL
MMFF94_CHARGES


@<TRIPOS>ATOM
      1 C1          6.9220    9.9070    3.2590 C.ar      1 IQP        -0.0090 
      2 C2          7.2230    9.9710    1.8620 C.ar      1 IQP        -0.1500 
      3 C3          6.2060   10.0250    0.8770 C.ar      1 IQP        -0.1500 
      4 C4          4.8490   10.0170    1.2990 C.ar      1 IQP        -0.1500 
      5 C5          4.5100    9.9570    2.6830 C.ar      1 IQP         0.0000 
      6 C6          3.1660    9.9490    3.1070 C.ar      1 IQP         0.1600 
      7 N7          2.8850    9.8900    4.4240 N.ar      1 IQP        -0.6200 
      8 C8          3.8100    9.8370    5.4060 C.ar      1 IQP         0.1600 
      9 C9          5.1500    9.8420    5.0600 C.ar      1 IQP        -0.1500 
     10 C10         5.5440    9.9020    3.6810 C.ar      1 IQP         0.0000 
     11 S           8.2560    9.8400    4.4310 S.o2      1 IQP         1.4470 
     12 O1          7.8680    8.9110    5.4940 O.2       1 IQP        -0.6500 
     13 O2          8.4870   11.2270    4.7360 O.2       1 IQP        -0.6500 
     14 N1'         9.4280    9.1390    3.5960 N.am      1 IQP        -0.8494 
     15 C2'        10.7840    9.7940    3.7670 C.3       1 IQP         0.3557 
     16 CM2        11.2730    9.6590    5.2290 C.3       1 IQP         0.0000 
     17 C3'        11.8380    9.0210    2.9300 C.3       1 IQP         0.5030 
     18 N4'        11.6980    7.5310    3.1900 N.4       1 IQP        -0.9060 
     19 C5'        10.3790    6.9420    2.8730 C.3       1 IQP         0.5030 
     20 C6'         9.3930    7.6540    3.8060 C.3       1 IQP         0.3557 
     21 H1          8.2604    9.9784    1.5475 H         1 IQP         0.1500 
     22 H2          6.4577   10.0714   -0.1764 H         1 IQP         0.1500 
     23 H3          4.0593   10.0571    0.5575 H         1 IQP         0.1500 
     24 H4          2.3638    9.9900    2.3791 H         1 IQP         0.1500 
     25 H5          3.5087    9.7914    6.4463 H         1 IQP         0.1500 
     26 H6          5.9067    9.8004    5.8351 H         1 IQP         0.1500 
     27 H7         10.7327   10.8505    3.4651 H         1 IQP         0.0000 
     28 H8         12.2570   10.1398    5.3324 H         1 IQP         0.0000 
     29 H9         11.3560    8.5939    5.4910 H         1 IQP         0.0000 
     30 H10        10.5537   10.1474    5.9028 H         1 IQP         0.0000 
     31 H11        12.8475    9.3500    3.2176 H         1 IQP         0.0000 
     32 H12        11.6771    9.2232    1.8608 H         1 IQP         0.0000 
     33 H13        11.8816    7.3694    4.1679 H         1 IQP         0.4500 
     34 H14        12.3909    7.0540    2.6347 H         1 IQP         0.4500 
     35 H15        10.3821    5.8593    3.0672 H         1 IQP         0.0000 
     36 H16        10.1165    7.1250    1.8206 H         1 IQP         0.0000 
     37 H17         8.3765    7.2861    3.6028 H         1 IQP         0.0000 
     38 H18         9.6615    7.4321    4.8494 H         1 IQP         0.0000 
@<TRIPOS>BOND
     1    1   11 1    
     2    1   10 ar   
     3    1    2 ar   
     4    2    3 ar   
     5    3    4 ar   
     6    4    5 ar   
     7    5   10 ar   
     8    5    6 ar   
     9    6    7 ar   
    10    7    8 ar   
    11    8    9 ar   
    12    9   10 ar   
    13   11   14 am   
    14   11   13 2    
    15   11   12 2    
    16   14   20 1    
    17   14   15 1    
    18   15   17 1    
    19   15   16 1    
    20   17   18 1    
    21   18   19 1    
    22   19   20 1    
    23    2   21 1    
    24    3   22 1    
    25    4   23 1    
    26    6   24 1    
    27    8   25 1    
    28    9   26 1    
    29   15   27 1    
    30   16   28 1    
    31   16   29 1    
    32   16   30 1    
    33   17   31 1    
    34   17   32 1    
    35   18   33 1    
    36   18   34 1    
    37   19   35 1    
    38   19   36 1    
    39   20   37 1    
    40   20   38 1    
@<TRIPOS>SUBSTRUCTURE
     1 IQP         1 PERM              0 ****  ****    0 ROOT 
@<TRIPOS>NORMAL
@<TRIPOS>ALT_TYPE
MMFF94_ALT_TYPE_SET 
MMFF94 15 CR 16 CR 17 CR 19 CR 20 CR 1 CB 2 CB 3 CB 4 CB 5 CB 6 CB 8 CB \
9 CB 10 CB 21 HC 22 HC 23 HC 24 HC 25 HC 26 HC 27 HC 28 HC \
29 HC 30 HC 31 HC 32 HC 35 HC 36 HC 37 HC 38 HC 33 HNR+ \
34 HNR+ 12 O2S 13 O2S 7 NPYD 18 NR+ 14 NSO2 11 SO2N \

