#	Name:			1ydr_ligand
#	Creating user name:	suminyi
#	Creation time:		Sun Sep 30 06:50:59 2018

#	Modifying user name:	suminyi
#	Modification time:	Sun Sep 30 06:50:59 2018

@<TRIPOS>MOLECULE
1ydr_ligand
   38    40     1     1     0
SMALL
MMFF94_CHARGES


@<TRIPOS>ATOM
      1 C1          7.0270    9.8380    3.2410 C.ar      1 MOL        -0.0090 
      2 C2          7.3840    9.9570    1.8930 C.ar      1 MOL        -0.1500 
      3 C3          6.4140    9.9990    0.8950 C.ar      1 MOL        -0.1500 
      4 C4          5.0680    9.9210    1.2260 C.ar      1 MOL        -0.1500 
      5 C5          4.6990    9.8260    2.5650 C.ar      1 MOL         0.0000 
      6 C6          3.3470    9.7390    2.8900 C.ar      1 MOL         0.1600 
      7 N7          2.9080    9.6850    4.1630 N.ar      1 MOL        -0.6200 
      8 C8          3.8290    9.6820    5.1440 C.ar      1 MOL         0.1600 
      9 C9          5.1960    9.7610    4.8980 C.ar      1 MOL        -0.1500 
     10 C10         5.6640    9.8120    3.5830 C.ar      1 MOL         0.0000 
     11 S           8.3530    9.7390    4.4540 S.o2      1 MOL         1.4470 
     12 O1          8.1140    8.9580    5.6540 O.2       1 MOL        -0.6500 
     13 O2          8.9170   11.0840    4.4410 O.2       1 MOL        -0.6500 
     14 N1'         9.5300    8.8850    3.5740 N.am      1 MOL        -0.8494 
     15 C2'        10.9680    9.2380    3.7960 C.3       1 MOL         0.3557 
     16 CM2        11.4410    8.9010    5.2260 C.3       1 MOL         0.0000 
     17 C3'        11.8840    8.5250    2.7430 C.3       1 MOL         0.5030 
     18 N4'        11.6240    7.0310    2.5260 N.4       1 MOL        -0.9060 
     19 C5'        10.1360    6.8340    2.3480 C.3       1 MOL         0.5030 
     20 C6'         9.2860    7.4220    3.4950 C.3       1 MOL         0.3557 
     21 H1          8.4330   10.0150    1.6060 H         1 MOL         0.1500 
     22 H2          6.7030   10.0830   -0.1490 H         1 MOL         0.1500 
     23 H3          4.3090    9.9420    0.4420 H         1 MOL         0.1500 
     24 H4          2.5780    9.7310    2.1220 H         1 MOL         0.1500 
     25 H5          3.4370    9.6450    6.1570 H         1 MOL         0.1500 
     26 H6          5.8600    9.7790    5.7530 H         1 MOL         0.1500 
     27 H7         11.0990   10.3190    3.6610 H         1 MOL         0.0000 
     28 H8         12.4690    9.2350    5.3800 H         1 MOL         0.0000 
     29 H9         11.4060    7.8270    5.4180 H         1 MOL         0.0000 
     30 H10        10.8200    9.3920    5.9800 H         1 MOL         0.0000 
     31 H11        12.9380    8.6590    3.0100 H         1 MOL         0.0000 
     32 H12        11.7230    9.0090    1.7750 H         1 MOL         0.0000 
     33 H13        11.9020    6.4460    3.3470 H         1 MOL         0.4500 
     34 H14        12.1240    6.6110    1.6910 H         1 MOL         0.4500 
     35 H15         9.9450    5.7660    2.2840 H         1 MOL         0.0000 
     36 H16         9.8540    7.2930    1.3950 H         1 MOL         0.0000 
     37 H17         8.2290    7.2130    3.3030 H         1 MOL         0.0000 
     38 H18         9.5530    6.9300    4.4390 H         1 MOL         0.0000 
@<TRIPOS>BOND
     1    1   11 1    
     2    1   10 ar   
     3    1    2 ar   
     4    2    3 ar   
     5    3    4 ar   
     6    4    5 ar   
     7    5   10 ar   
     8    5    6 ar   
     9    6    7 ar   
    10    7    8 ar   
    11    8    9 ar   
    12    9   10 ar   
    13   11   14 am   
    14   11   13 2    
    15   11   12 2    
    16   14   20 1    
    17   14   15 1    
    18   15   17 1    
    19   15   16 1    
    20   17   18 1    
    21   18   19 1    
    22   19   20 1    
    23    2   21 1    
    24    3   22 1    
    25    4   23 1    
    26    6   24 1    
    27    8   25 1    
    28    9   26 1    
    29   15   27 1    
    30   16   28 1    
    31   16   29 1    
    32   16   30 1    
    33   17   31 1    
    34   17   32 1    
    35   18   33 1    
    36   18   34 1    
    37   19   35 1    
    38   19   36 1    
    39   20   37 1    
    40   20   38 1    
@<TRIPOS>SUBSTRUCTURE
     1 MOL         1 PERM              0 ****  ****    0 ROOT 
@<TRIPOS>NORMAL
@<TRIPOS>ALT_TYPE
MMFF94_ALT_TYPE_SET 
MMFF94 15 CR 16 CR 17 CR 19 CR 20 CR 1 CB 2 CB 3 CB 4 CB 5 CB 6 CB 8 CB \
9 CB 10 CB 21 HC 22 HC 23 HC 24 HC 25 HC 26 HC 27 HC 28 HC \
29 HC 30 HC 31 HC 32 HC 35 HC 36 HC 37 HC 38 HC 33 HNR+ \
34 HNR+ 12 O2S 13 O2S 7 NPYD 18 NR+ 14 NSO2 11 SO2N \

