#	Name:			4lzs_ligand
#	Creating user name:	suminyi
#	Creation time:		Sun Sep 30 06:51:10 2018

#	Modifying user name:	suminyi
#	Modification time:	Sun Sep 30 06:51:11 2018

@<TRIPOS>MOLECULE
4lzs_ligand
   31    31     1     1     0
SMALL
MMFF94_CHARGES


@<TRIPOS>ATOM
      1 C4         12.6720   38.6130   77.5640 C.2       1 MOL        -0.0860 
      2 C3         11.6380   37.7300   77.1030 C.2       1 MOL        -0.1810 
      3 C7         10.4880   38.0060   77.8020 C.2       1 MOL        -0.2366 
      4 C5         12.0620   39.4550   78.4690 C.2       1 MOL        -0.3316 
      5 C27        14.1140   38.6690   77.2050 C.2       1 MOL         0.5950 
      6 C8          9.1490   37.3740   77.7090 C.2       1 MOL         0.7150 
      7 C26        12.7190   40.5900   79.2030 C.3       1 MOL         0.1800 
      8 C29        14.7950   37.4610   76.6220 C.3       1 MOL         0.0610 
      9 C1         11.8150   37.3980   74.6010 C.3       1 MOL         0.0000 
     10 C2         11.7760   36.7220   75.9840 C.3       1 MOL         0.1810 
     11 N6         10.7630   39.0470   78.6700 N.pl3     1 MOL         0.0332 
     12 N10         8.3410   37.6660   78.7440 N.am      1 MOL        -0.7301 
     13 O28        14.8200   39.6350   77.4290 O.2       1 MOL        -0.5700 
     14 O9          8.7630   36.6330   76.8310 O.2       1 MOL        -0.5700 
     15 C6          7.0240   37.0440   78.9360 C.3       1 MOL         0.3001 
     16 H          12.0130   41.0840   79.8740 H         1 MOL         0.0000 
     17 H1         13.0950   41.3340   78.4990 H         1 MOL         0.0000 
     18 H2         13.5610   40.2340   79.7990 H         1 MOL         0.0000 
     19 H3         15.8760   37.5630   76.7150 H         1 MOL         0.0000 
     20 H4         14.5580   37.3350   75.5660 H         1 MOL         0.0000 
     21 H5         14.5060   36.5740   77.1840 H         1 MOL         0.0000 
     22 H6         11.9380   36.6470   73.8170 H         1 MOL         0.0000 
     23 H7         12.6430   38.1050   74.5280 H         1 MOL         0.0000 
     24 H8         10.8850   37.9400   74.4160 H         1 MOL         0.0000 
     25 H9         10.9460   36.0200   75.9900 H         1 MOL         0.0000 
     26 H10        12.6510   36.0950   76.1150 H         1 MOL         0.0000 
     27 H11        10.1100   39.4830   79.3190 H         1 MOL         0.2700 
     28 H12         8.6970   38.2620   79.4710 H         1 MOL         0.3700 
     29 H13         6.7170   37.1440   79.9790 H         1 MOL         0.0000 
     30 H14         7.0740   35.9810   78.6810 H         1 MOL         0.0000 
     31 H15         6.2890   37.5330   78.2910 H         1 MOL         0.0000 
@<TRIPOS>BOND
     1    1    2 1    
     2    1    4 2    
     3    1    5 1    
     4    2    3 2    
     5    2   10 1    
     6    3    6 1    
     7    3   11 1    
     8    4    7 1    
     9    4   11 1    
    10    5    8 1    
    11    5   13 2    
    12    6   12 am   
    13    6   14 2    
    14   10    9 1    
    15   12   15 1    
    16    7   16 1    
    17    7   17 1    
    18    7   18 1    
    19    8   19 1    
    20    8   20 1    
    21    8   21 1    
    22    9   22 1    
    23    9   23 1    
    24    9   24 1    
    25   10   25 1    
    26   10   26 1    
    27   11   27 1    
    28   12   28 1    
    29   15   29 1    
    30   15   30 1    
    31   15   31 1    
@<TRIPOS>SUBSTRUCTURE
     1 MOL         1 PERM              0 ****  ****    0 ROOT 
@<TRIPOS>NORMAL
@<TRIPOS>ALT_TYPE
MMFF94_ALT_TYPE_SET 
MMFF94 7 CR 8 CR 9 CR 10 CR 15 CR 3 C5A 4 C5A 2 C5B 1 C5B 6 C=ON 5 C=OR \
16 HC 17 HC 18 HC 19 HC 20 HC 21 HC 22 HC 23 HC 24 HC \
25 HC 26 HC 29 HC 30 HC 31 HC 27 HPYL 28 HNCO 14 O=CN \
13 O=CR 11 NPYL 12 NC=O 
