#	Name:			4ivd_ligand
#	Creating user name:	suminyi
#	Creation time:		Sun Sep 30 06:51:03 2018

#	Modifying user name:	suminyi
#	Modification time:	Sun Sep 30 06:51:03 2018

@<TRIPOS>MOLECULE
4ivd_ligand
   48    51     1     1     0
SMALL
MMFF94_CHARGES


@<TRIPOS>ATOM
      1 C1         10.9320   57.1350   -1.7250 C.3       1 MOL         0.0000 
      2 C2          9.8430   56.6590   -0.7490 C.3       1 MOL         0.4600 
      3 O4         10.4400   56.4250    0.5350 O.3       1 MOL        -0.6800 
      4 C5          8.6770   57.6250   -0.6190 C.2       1 MOL         0.0065 
      5 N6          7.4930   57.3170    0.0570 N.pl3     1 MOL         0.0476 
      6 C7          6.7880   58.4740    0.0340 C.ar      1 MOL        -0.1516 
      7 C8          7.5380   59.3970   -0.6370 C.ar      1 MOL         0.2272 
      8 N9          8.6870   58.8980   -1.0960 N.2       1 MOL        -0.5653 
      9 C10         7.0930   60.7140   -0.7620 C.ar      1 MOL         0.1600 
     10 N11         5.9070   61.1370   -0.2530 N.ar      1 MOL        -0.5670 
     11 C12         5.1820   60.2140    0.4130 C.ar      1 MOL         0.1054 
     12 C13         5.5620   58.8950    0.5640 C.ar      1 MOL         0.0000 
     13 C14         4.5450   58.2260    1.3070 C.2       1 MOL        -0.1500 
     14 C15         3.5920   59.1840    1.5880 C.2       1 MOL        -0.3016 
     15 N16         4.0000   60.3890    1.0250 N.pl3     1 MOL         0.0332 
     16 C18         7.1970   55.9900    0.6290 C.3       1 MOL         0.2556 
     17 C20         7.1100   55.9220    2.1710 C.3       1 MOL         0.0000 
     18 C21         6.9270   54.4650    2.6580 C.3       1 MOL         0.0000 
     19 C22         5.7410   53.7580    1.9530 C.3       1 MOL         0.0000 
     20 C24         5.9220   53.8110    0.4190 C.3       1 MOL         0.0000 
     21 C25         6.0400   55.2650   -0.0760 C.3       1 MOL         0.0000 
     22 C26         5.6060   52.2920    2.4500 C.3       1 MOL         0.0000 
     23 C27         4.1720   51.7320    2.2990 C.3       1 MOL         0.2000 
     24 C28         3.8090   51.1460    1.0000 C.1       1 MOL         0.3571 
     25 N29         3.4350   50.7180    0.0230 N.1       1 MOL        -0.5571 
     26 H1         10.5060   57.2900   -2.7180 H         1 MOL         0.0000 
     27 H2         11.7150   56.3780   -1.8050 H         1 MOL         0.0000 
     28 H3         11.3810   58.0680   -1.3810 H         1 MOL         0.0000 
     29 H4          9.4750   55.7030   -1.1240 H         1 MOL         0.0000 
     30 H5         11.3820   56.1060    0.4570 H         1 MOL         0.4000 
     31 H6          7.6790   61.4540   -1.2950 H         1 MOL         0.1500 
     32 H7          4.4990   57.1960    1.6360 H         1 MOL         0.1500 
     33 H8          2.6770   59.1060    2.1620 H         1 MOL         0.1500 
     34 H9          3.5210   61.2870    1.0680 H         1 MOL         0.2700 
     35 H10         8.0600   55.3620    0.4060 H         1 MOL         0.0000 
     36 H11         6.3000   56.5410    2.5520 H         1 MOL         0.0000 
     37 H12         8.0380   56.3120    2.5960 H         1 MOL         0.0000 
     38 H13         6.7680   54.4710    3.7390 H         1 MOL         0.0000 
     39 H14         7.8500   53.9090    2.4740 H         1 MOL         0.0000 
     40 H15         4.8350   54.3100    2.2210 H         1 MOL         0.0000 
     41 H16         5.0870   53.3250   -0.0850 H         1 MOL         0.0000 
     42 H17         6.8270   53.2640    0.1480 H         1 MOL         0.0000 
     43 H18         6.2260   55.2640   -1.1520 H         1 MOL         0.0000 
     44 H19         5.1050   55.7920    0.0930 H         1 MOL         0.0000 
     45 H20         5.8340   52.2760    3.5190 H         1 MOL         0.0000 
     46 H21         6.3360   51.6380    1.9660 H         1 MOL         0.0000 
     47 H22         3.4750   52.5440    2.4430 H         1 MOL         0.0000 
     48 H23         3.9850   50.9920    3.0800 H         1 MOL         0.0000 
@<TRIPOS>BOND
     1    1    2 1    
     2    2    3 1    
     3    2    4 1    
     4    4    5 1    
     5    4    8 2    
     6    5    6 1    
     7    5   16 1    
     8    6    7 ar   
     9    6   12 ar   
    10    7    8 1    
    11    7    9 ar   
    12    9   10 ar   
    13   10   11 ar   
    14   11   12 ar   
    15   11   15 1    
    16   12   13 1    
    17   13   14 2    
    18   14   15 1    
    19   16   17 1    
    20   16   21 1    
    21   17   18 1    
    22   18   19 1    
    23   19   20 1    
    24   19   22 1    
    25   20   21 1    
    26   22   23 1    
    27   23   24 1    
    28   24   25 3    
    29    1   26 1    
    30    1   27 1    
    31    1   28 1    
    32    2   29 1    
    33    3   30 1    
    34    9   31 1    
    35   13   32 1    
    36   14   33 1    
    37   15   34 1    
    38   16   35 1    
    39   17   36 1    
    40   17   37 1    
    41   18   38 1    
    42   18   39 1    
    43   19   40 1    
    44   20   41 1    
    45   20   42 1    
    46   21   43 1    
    47   21   44 1    
    48   22   45 1    
    49   22   46 1    
    50   23   47 1    
    51   23   48 1    
@<TRIPOS>SUBSTRUCTURE
     1 MOL         1 PERM              0 ****  ****    0 ROOT 
@<TRIPOS>NORMAL
@<TRIPOS>ALT_TYPE
MMFF94_ALT_TYPE_SET 
MMFF94 1 CR 2 CR 16 CR 17 CR 18 CR 19 CR 20 CR 21 CR 22 CR 23 CR 4 C5A \
14 C5A 6 C5A 11 C5A 13 C5B 7 C5B 12 C5B 9 CB 24 CSP 26 HC \
27 HC 28 HC 29 HC 31 HC 32 HC 33 HC 35 HC 36 HC 37 HC \
38 HC 39 HC 40 HC 41 HC 42 HC 43 HC 44 HC 45 HC 46 HC \
47 HC 48 HC 34 HPYL 30 HOR 3 OR 10 NPYD 5 NPYL 15 NPYL \
8 N5B 25 NSP 
