#	Name:			4ivd_ligand
#	Creating user name:	suminyi
#	Creation time:		Sun Sep 30 06:48:45 2018

#	Modifying user name:	suminyi
#	Modification time:	Sun Sep 30 06:48:45 2018

@<TRIPOS>MOLECULE
4ivd_ligand
   48    51     1     1     0
SMALL
MMFF94_CHARGES


@<TRIPOS>ATOM
      1 C1         10.9360   57.1740   -1.8440 C.3       1 UNNAMED     0.0000 
      2 C2          9.9700   56.5840   -0.8150 C.3       1 UNNAMED     0.4600 
      3 O4         10.6130   56.2930    0.4450 O.3       1 UNNAMED    -0.6800 
      4 C5          8.8450   57.5490   -0.5420 C.2       1 UNNAMED     0.0065 
      5 N6          7.6750   57.2440    0.0900 N.pl3     1 UNNAMED     0.0476 
      6 C7          6.9300   58.4180    0.1480 C.ar      1 UNNAMED    -0.1516 
      7 C8          7.7240   59.3940   -0.4850 C.ar      1 UNNAMED     0.2272 
      8 N9          8.8660   58.7910   -0.8720 N.2       1 UNNAMED    -0.5653 
      9 C10         7.2640   60.7060   -0.6080 C.ar      1 UNNAMED     0.1600 
     10 N11         6.0890   61.0690   -0.1470 N.ar      1 UNNAMED    -0.5670 
     11 C12         5.2820   60.1980    0.4530 C.ar      1 UNNAMED     0.1054 
     12 C13         5.6680   58.8470    0.6280 C.ar      1 UNNAMED     0.0000 
     13 C14         4.5470   58.2090    1.3050 C.2       1 UNNAMED    -0.1500 
     14 C15         3.5950   59.1410    1.4860 C.2       1 UNNAMED    -0.3016 
     15 N16         4.0400   60.3410    0.9860 N.pl3     1 UNNAMED     0.0332 
     16 C18         7.3530   55.8940    0.5970 C.3       1 UNNAMED     0.2556 
     17 C20         7.0900   55.9390    2.1100 C.3       1 UNNAMED     0.0000 
     18 C21         6.8020   54.5180    2.6310 C.3       1 UNNAMED     0.0000 
     19 C22         5.6480   53.8370    1.8670 C.3       1 UNNAMED     0.0000 
     20 C24         5.9200   53.8370    0.3510 C.3       1 UNNAMED     0.0000 
     21 C25         6.1650   55.2660   -0.1520 C.3       1 UNNAMED     0.0000 
     22 C26         5.5420   52.4030    2.4220 C.3       1 UNNAMED     0.0000 
     23 C27         4.1190   51.8240    2.3810 C.3       1 UNNAMED     0.2000 
     24 C28         3.7990   51.3150    1.0390 C.1       1 UNNAMED     0.3571 
     25 N29         3.6010   51.0020   -0.0390 N.1       1 UNNAMED    -0.5571 
     26 H1         10.3957   57.3756   -2.7807 H         1 UNNAMED     0.0000 
     27 H2         11.7489   56.4583   -2.0364 H         1 UNNAMED     0.0000 
     28 H3         11.3580   58.1124   -1.4549 H         1 UNNAMED     0.0000 
     29 H4          9.5561   55.6511   -1.2254 H         1 UNNAMED     0.0000 
     30 H5          9.9752   55.9302    1.0484 H         1 UNNAMED     0.4000 
     31 H6          7.8916   61.4431   -1.0957 H         1 UNNAMED     0.1500 
     32 H7          4.4903   57.1650    1.6097 H         1 UNNAMED     0.1500 
     33 H8          2.6263   58.9719    1.9540 H         1 UNNAMED     0.1500 
     34 H9          3.5083   61.2228    1.0115 H         1 UNNAMED     0.2700 
     35 H10         8.2306   55.2535    0.4251 H         1 UNNAMED     0.0000 
     36 H11         6.2224   56.5846    2.3110 H         1 UNNAMED     0.0000 
     37 H12         7.9750   56.3438    2.6228 H         1 UNNAMED     0.0000 
     38 H13         6.5335   54.5793    3.6959 H         1 UNNAMED     0.0000 
     39 H14         7.7104   53.9083    2.5164 H         1 UNNAMED     0.0000 
     40 H15         4.7082   54.3760    2.0570 H         1 UNNAMED     0.0000 
     41 H16         5.0504   53.4133   -0.1727 H         1 UNNAMED     0.0000 
     42 H17         6.8085   53.2229    0.1428 H         1 UNNAMED     0.0000 
     43 H18         6.3870   55.2394   -1.2290 H         1 UNNAMED     0.0000 
     44 H19         5.2638   55.8723    0.0218 H         1 UNNAMED     0.0000 
     45 H20         5.8832   52.4100    3.4677 H         1 UNNAMED     0.0000 
     46 H21         6.1984   51.7515    1.8265 H         1 UNNAMED     0.0000 
     47 H22         3.4009   52.6135    2.6475 H         1 UNNAMED     0.0000 
     48 H23         4.0441   51.0002    3.1061 H         1 UNNAMED     0.0000 
@<TRIPOS>BOND
     1    1    2 1    
     2    2    3 1    
     3    2    4 1    
     4    4    5 1    
     5    4    8 2    
     6    5    6 1    
     7    5   16 1    
     8    6    7 ar   
     9    6   12 ar   
    10    7    8 1    
    11    7    9 ar   
    12    9   10 ar   
    13   10   11 ar   
    14   11   12 ar   
    15   11   15 1    
    16   12   13 1    
    17   13   14 2    
    18   14   15 1    
    19   16   17 1    
    20   16   21 1    
    21   17   18 1    
    22   18   19 1    
    23   19   20 1    
    24   19   22 1    
    25   20   21 1    
    26   22   23 1    
    27   23   24 1    
    28   24   25 3    
    29    1   26 1    
    30    1   27 1    
    31    1   28 1    
    32    2   29 1    
    33    3   30 1    
    34    9   31 1    
    35   13   32 1    
    36   14   33 1    
    37   15   34 1    
    38   16   35 1    
    39   17   36 1    
    40   17   37 1    
    41   18   38 1    
    42   18   39 1    
    43   19   40 1    
    44   20   41 1    
    45   20   42 1    
    46   21   43 1    
    47   21   44 1    
    48   22   45 1    
    49   22   46 1    
    50   23   47 1    
    51   23   48 1    
@<TRIPOS>SUBSTRUCTURE
     1 UNNAMED     1 PERM              0 ****  ****    0 ROOT 
@<TRIPOS>NORMAL
@<TRIPOS>ALT_TYPE
MMFF94_ALT_TYPE_SET 
MMFF94 1 CR 2 CR 16 CR 17 CR 18 CR 19 CR 20 CR 21 CR 22 CR 23 CR 4 C5A \
14 C5A 6 C5A 11 C5A 13 C5B 7 C5B 12 C5B 9 CB 24 CSP 26 HC \
27 HC 28 HC 29 HC 31 HC 32 HC 33 HC 35 HC 36 HC 37 HC \
38 HC 39 HC 40 HC 41 HC 42 HC 43 HC 44 HC 45 HC 46 HC \
47 HC 48 HC 34 HPYL 30 HOR 3 OR 10 NPYD 5 NPYL 15 NPYL \
8 N5B 25 NSP 
