#	Name:			2w4x_ligand
#	Creating user name:	suminyi
#	Creation time:		Sun Sep 30 06:51:00 2018

#	Modifying user name:	suminyi
#	Modification time:	Sun Sep 30 06:51:00 2018

@<TRIPOS>MOLECULE
2w4x_ligand
   33    33     1     1     0
SMALL
MMFF94_CHARGES


@<TRIPOS>ATOM
      1 O3         -9.1870  -12.4350   11.1520 O.3       1 MOL        -0.6800 
      2 C3         -8.7650  -11.1920   10.5760 C.3       1 MOL         0.2800 
      3 C4         -8.0040  -10.3640   11.6420 C.3       1 MOL         0.2800 
      4 O4         -8.9500   -9.9260   12.6300 O.3       1 MOL        -0.6800 
      5 C5         -7.3100   -9.1530   10.9630 C.3       1 MOL         0.2800 
      6 C6         -6.4920   -8.2550   11.9130 C.3       1 MOL         0.2800 
      7 O6         -5.5270   -8.9960   12.6720 O.3       1 MOL        -0.6800 
      8 O5         -6.4200   -9.6490    9.9330 O.3       1 MOL        -0.5600 
      9 C1         -7.1120  -10.2640    8.8450 C.3       1 MOL         0.5600 
     10 O1         -6.0960  -10.6370    7.9300 O.3       1 MOL        -0.6800 
     11 C2         -7.8890  -11.5120    9.3400 C.3       1 MOL         0.3001 
     12 N2         -8.6790  -12.1680    8.2800 N.am      1 MOL        -0.7301 
     13 CAM        -9.5440  -11.5590    7.4540 C.2       1 MOL         0.6900 
     14 OAG        -9.7340  -10.3540    7.5070 O.2       1 MOL        -0.5700 
     15 NAN       -10.1830  -12.3520    6.5590 N.am      1 MOL        -0.1751 
     16 CAH       -11.1150  -11.7630    5.5920 C.3       1 MOL         0.3001 
     17 NAO       -10.0450  -13.7210    6.5610 N.2       1 MOL        -0.0232 
     18 OAP       -10.8840  -14.2990    7.2110 O.2       1 MOL        -0.1618 
     19 H1         -9.8720  -12.2200   11.8440 H         1 MOL         0.4000 
     20 H2         -9.6370  -10.6180   10.2480 H         1 MOL         0.0000 
     21 H3         -7.2420  -10.9910   12.1110 H         1 MOL         0.0000 
     22 H4         -8.4860   -9.9320   13.5370 H         1 MOL         0.4000 
     23 H5         -8.0720   -8.5260   10.4900 H         1 MOL         0.0000 
     24 H6         -7.1810   -7.7510   12.5970 H         1 MOL         0.0000 
     25 H7         -5.9760   -7.4920   11.3250 H         1 MOL         0.0000 
     26 H8         -5.8020   -8.8440   13.6480 H         1 MOL         0.4000 
     27 H9         -7.7670   -9.5100    8.3820 H         1 MOL         0.0000 
     28 H10        -5.4640  -11.1440    8.4730 H         1 MOL         0.4000 
     29 H11        -7.1400  -12.2360    9.6750 H         1 MOL         0.0000 
     30 H12        -8.6100  -13.1690    8.1860 H         1 MOL         0.3700 
     31 H13       -11.5740  -12.5440    4.9830 H         1 MOL         0.0000 
     32 H14       -10.5790  -11.0740    4.9430 H         1 MOL         0.0000 
     33 H15       -11.8910  -11.2160    6.1240 H         1 MOL         0.0000 
@<TRIPOS>BOND
     1    1    2 1    
     2    2    3 1    
     3    2   11 1    
     4    3    4 1    
     5    3    5 1    
     6    5    6 1    
     7    5    8 1    
     8    6    7 1    
     9    8    9 1    
    10    9   10 1    
    11    9   11 1    
    12   11   12 1    
    13   12   13 am   
    14   13   14 2    
    15   13   15 am   
    16   15   16 1    
    17   15   17 1    
    18   17   18 2    
    19    1   19 1    
    20    2   20 1    
    21    3   21 1    
    22    4   22 1    
    23    5   23 1    
    24    6   24 1    
    25    6   25 1    
    26    7   26 1    
    27    9   27 1    
    28   10   28 1    
    29   11   29 1    
    30   12   30 1    
    31   16   31 1    
    32   16   32 1    
    33   16   33 1    
@<TRIPOS>SUBSTRUCTURE
     1 MOL         1 PERM              0 ****  ****    0 ROOT 
@<TRIPOS>NORMAL
@<TRIPOS>ALT_TYPE
MMFF94_ALT_TYPE_SET 
MMFF94 2 CR 3 CR 5 CR 6 CR 9 CR 11 CR 16 CR 13 CONN 20 HC 21 HC 23 HC \
24 HC 25 HC 27 HC 29 HC 31 HC 32 HC 33 HC 30 HNCO 19 HOR \
22 HOR 26 HOR 28 HOR 14 O=CN 18 O=N 1 OR 4 OR 7 OR 8 OR \
10 OR 17 N=O 12 NC=O 15 NC=O 
