#	Name:			4ih5_ligand
#	Creating user name:	suminyi
#	Creation time:		Sun Sep 30 06:51:02 2018

#	Modifying user name:	suminyi
#	Modification time:	Sun Sep 30 06:51:02 2018

@<TRIPOS>MOLECULE
4ih5_ligand
   27    29     1     1     0
SMALL
MMFF94_CHARGES


@<TRIPOS>ATOM
      1 C4        -31.9060   -9.3280   13.5450 C.ar      1 MOL         0.4100 
      2 C14       -36.1290   -9.9040   11.6520 C.ar      1 MOL        -0.1500 
      3 C5        -32.0370   -7.9580   13.3480 C.ar      1 MOL         0.0000 
      4 C6        -31.1290   -7.1040   13.8980 C.ar      1 MOL         0.6580 
      5 C10       -33.0450   -7.1840   12.7310 C.2       1 MOL        -0.3016 
      6 C13       -35.1260   -9.8970   12.6180 C.ar      1 MOL         0.1000 
      7 N1        -30.1040   -7.5730   14.6180 N.ar      1 MOL        -0.6200 
      8 N3        -30.9050   -9.8230   14.2780 N.ar      1 MOL        -0.6200 
      9 C2        -30.0570   -8.9070   14.7880 C.ar      1 MOL         0.4700 
     10 N7        -31.4650   -5.8260   13.6790 N.2       1 MOL        -0.7660 
     11 N9        -32.6490   -5.8940   13.0020 N.pl3     1 MOL         0.4076 
     12 N11       -32.7960  -10.2830   13.1470 N.pl3     1 MOL        -0.5000 
     13 N12       -33.8230   -9.9960   12.2060 N.pl3     1 MOL        -0.5000 
     14 C15       -37.4650   -9.7460   12.0170 C.ar      1 MOL        -0.1500 
     15 C16       -37.8030   -9.5630   13.3580 C.ar      1 MOL        -0.1500 
     16 C17       -36.8010   -9.5400   14.3270 C.ar      1 MOL        -0.1500 
     17 C18       -35.4670   -9.6940   13.9580 C.ar      1 MOL        -0.1500 
     18 H1        -35.8700  -10.0270   10.6040 H         1 MOL         0.1500 
     19 H2        -33.9810   -7.4410   12.2500 H         1 MOL         0.1500 
     20 H3        -29.2290   -9.2840   15.3770 H         1 MOL         0.1500 
     21 H4        -33.1890   -5.0530   12.8610 H         1 MOL         0.1620 
     22 H5        -33.1010  -10.8400   13.9470 H         1 MOL         0.4000 
     23 H6        -33.6770  -10.4450   11.2980 H         1 MOL         0.4000 
     24 H7        -38.2350   -9.7660   11.2510 H         1 MOL         0.1500 
     25 H8        -38.8420   -9.4380   13.6540 H         1 MOL         0.1500 
     26 H9        -37.0540   -9.4010   15.3750 H         1 MOL         0.1500 
     27 H10       -34.6990   -9.6410   14.7270 H         1 MOL         0.1500 
@<TRIPOS>BOND
     1    1    3 ar   
     2    1    8 ar   
     3   12    1 1    
     4    6    2 ar   
     5    2   14 ar   
     6    3    4 ar   
     7    3    5 2    
     8    4    7 ar   
     9    4   10 2    
    10    5   11 1    
    11   13    6 1    
    12    6   17 ar   
    13    9    7 ar   
    14    8    9 ar   
    15   11   10 1    
    16   12   13 1    
    17   14   15 ar   
    18   15   16 ar   
    19   16   17 ar   
    20    2   18 1    
    21    5   19 1    
    22    9   20 1    
    23   11   21 1    
    24   12   22 1    
    25   13   23 1    
    26   14   24 1    
    27   15   25 1    
    28   16   26 1    
    29   17   27 1    
@<TRIPOS>SUBSTRUCTURE
     1 MOL         1 PERM              0 ****  ****    0 ROOT 
@<TRIPOS>NORMAL
@<TRIPOS>ALT_TYPE
MMFF94_ALT_TYPE_SET 
MMFF94 5 C5A 1 CB 2 CB 3 CB 4 CB 6 CB 9 CB 14 CB 15 CB 16 CB 17 CB 18 HC \
19 HC 20 HC 24 HC 25 HC 26 HC 27 HC 21 HNCC 22 HNCC 23 HNCC \
7 NPYD 8 NPYD 11 NPYL 10 N5A 12 NC=N 13 NC=C 
