#	Name:			4ih5_ligand
#	Creating user name:	suminyi
#	Creation time:		Sun Sep 30 06:48:44 2018

#	Modifying user name:	suminyi
#	Modification time:	Sun Sep 30 06:48:44 2018

@<TRIPOS>MOLECULE
4ih5_ligand
   27    29     1     1     0
SMALL
MMFF94_CHARGES


@<TRIPOS>ATOM
      1 C4        -31.7160   -9.0430   13.7160 C.ar      1 UNNAMED     0.4100 
      2 C14       -35.8830   -9.9190   11.6850 C.ar      1 UNNAMED    -0.1500 
      3 C5        -31.9080   -7.6740   13.3210 C.ar      1 UNNAMED     0.0000 
      4 C6        -30.9980   -6.7570   13.8830 C.ar      1 UNNAMED     0.6580 
      5 C10       -32.7290   -6.8860   12.4790 C.2       1 UNNAMED    -0.3016 
      6 C13       -34.8700   -9.8480   12.6390 C.ar      1 UNNAMED     0.1000 
      7 N1        -30.0070   -7.1000   14.7310 N.ar      1 UNNAMED    -0.6200 
      8 N3        -30.7280   -9.3910   14.5640 N.ar      1 UNNAMED    -0.6200 
      9 C2        -29.9400   -8.4040   15.0060 C.ar      1 UNNAMED     0.4700 
     10 N7        -31.3290   -5.5190   13.3570 N.2       1 UNNAMED    -0.7660 
     11 N9        -32.3880   -5.6130   12.4970 N.pl3     1 UNNAMED     0.4076 
     12 N11       -32.5320  -10.0550   13.2120 N.pl3     1 UNNAMED    -0.5000 
     13 N12       -33.5240   -9.9050   12.2200 N.pl3     1 UNNAMED    -0.5000 
     14 C15       -37.2070   -9.7530   12.0670 C.ar      1 UNNAMED    -0.1500 
     15 C16       -37.5290   -9.5240   13.3910 C.ar      1 UNNAMED    -0.1500 
     16 C17       -36.5290   -9.4850   14.3470 C.ar      1 UNNAMED    -0.1500 
     17 C18       -35.2000   -9.6480   13.9780 C.ar      1 UNNAMED    -0.1500 
     18 H1        -35.6373  -10.1037   10.6455 H         1 UNNAMED     0.1500 
     19 H2        -33.5488   -7.2860   11.8842 H         1 UNNAMED     0.1500 
     20 H3        -29.1419   -8.7032   15.6758 H         1 UNNAMED     0.1500 
     21 H4        -32.8292   -4.8455   11.9706 H         1 UNNAMED     0.1620 
     22 H5        -32.3982  -10.9998   13.5999 H         1 UNNAMED     0.4000 
     23 H6        -33.2738   -9.8393   11.2230 H         1 UNNAMED     0.4000 
     24 H7        -37.9930   -9.8033   11.3222 H         1 UNNAMED     0.1500 
     25 H8        -38.5630   -9.3752   13.6804 H         1 UNNAMED     0.1500 
     26 H9        -36.7842   -9.3265   15.3885 H         1 UNNAMED     0.1500 
     27 H10       -34.4204   -9.6197   14.7307 H         1 UNNAMED     0.1500 
@<TRIPOS>BOND
     1    1    3 ar   
     2    1    8 ar   
     3   12    1 1    
     4    6    2 ar   
     5    2   14 ar   
     6    3    4 ar   
     7    3    5 2    
     8    4    7 ar   
     9    4   10 2    
    10    5   11 1    
    11   13    6 1    
    12    6   17 ar   
    13    9    7 ar   
    14    8    9 ar   
    15   11   10 1    
    16   12   13 1    
    17   14   15 ar   
    18   15   16 ar   
    19   16   17 ar   
    20    2   18 1    
    21    5   19 1    
    22    9   20 1    
    23   11   21 1    
    24   12   22 1    
    25   13   23 1    
    26   14   24 1    
    27   15   25 1    
    28   16   26 1    
    29   17   27 1    
@<TRIPOS>SUBSTRUCTURE
     1 UNNAMED     1 PERM              0 ****  ****    0 ROOT 
@<TRIPOS>NORMAL
@<TRIPOS>ALT_TYPE
MMFF94_ALT_TYPE_SET 
MMFF94 5 C5A 1 CB 2 CB 3 CB 4 CB 6 CB 9 CB 14 CB 15 CB 16 CB 17 CB 18 HC \
19 HC 20 HC 24 HC 25 HC 26 HC 27 HC 21 HNCC 22 HNCC 23 HNCC \
7 NPYD 8 NPYD 11 NPYL 10 N5A 12 NC=N 13 NC=C 
