#	Name:			3nx7_ligand
#	Creating user name:	suminyi
#	Creation time:		Sun Sep 30 06:50:56 2018

#	Modifying user name:	suminyi
#	Modification time:	Sun Sep 30 06:50:56 2018

@<TRIPOS>MOLECULE
3nx7_ligand
   36    36     1     1     0
SMALL
MMFF94_CHARGES


@<TRIPOS>ATOM
      1 O4         -0.2590   -5.5210   -5.4000 O.2       1 MOL        -0.6500 
      2 S1         -1.4280   -6.2110   -4.8730 S.o2      1 MOL         1.4470 
      3 O3         -1.4490   -7.5610   -4.3450 O.2       1 MOL        -0.6500 
      4 N2         -1.8330   -5.2600   -3.5280 N.am      1 MOL        -0.8494 
      5 C10        -1.3270   -3.8570   -3.4380 C.3       1 MOL         0.4167 
      6 C9         -2.1320   -2.8520   -4.2540 C.2       1 MOL         0.5690 
      7 O1         -3.3400   -2.6050   -4.1540 O.2       1 MOL        -0.5700 
      8 N1         -1.5080   -2.0800   -5.1630 N.am      1 MOL        -0.3945 
      9 O2         -2.2120   -1.1650   -6.0110 O.3       1 MOL        -0.4355 
     10 C8         -2.9010   -5.7350   -2.6020 C.3       1 MOL         0.3557 
     11 C6         -2.7110   -5.3030   -1.1250 C.3       1 MOL         0.2800 
     12 O6         -1.3320   -5.3500   -0.7330 O.3       1 MOL        -0.6800 
     13 C3         -2.7990   -5.9160   -5.9650 C.ar      1 MOL        -0.0090 
     14 C5         -2.6420   -5.0890   -7.0800 C.ar      1 MOL        -0.1500 
     15 C7         -3.6430   -5.0600   -8.0470 C.ar      1 MOL        -0.1500 
     16 C4         -4.7590   -5.8820   -7.9370 C.ar      1 MOL         0.0825 
     17 C2         -4.9250   -6.6810   -6.8070 C.ar      1 MOL        -0.1500 
     18 C1         -3.9380   -6.7090   -5.8270 C.ar      1 MOL        -0.1500 
     19 O5         -5.6270   -5.9190   -9.0040 O.3       1 MOL        -0.3625 
     20 C11        -6.9160   -6.5770   -8.9840 C.3       1 MOL         0.2800 
     21 H1         -0.2830   -3.8020   -3.7720 H         1 MOL         0.0000 
     22 H2         -1.3330   -3.4940   -2.4080 H         1 MOL         0.0000 
     23 H3         -0.5010   -2.2280   -5.3890 H         1 MOL         0.3700 
     24 H4         -1.9190   -1.4290   -7.0180 H         1 MOL         0.4000 
     25 H5         -2.9330   -6.8290   -2.6020 H         1 MOL         0.0000 
     26 H6         -3.8750   -5.3860   -2.9520 H         1 MOL         0.0000 
     27 H7         -3.3000   -5.9630   -0.4790 H         1 MOL         0.0000 
     28 H8         -3.0790   -4.2830   -0.9930 H         1 MOL         0.0000 
     29 H9         -0.9080   -6.1310   -1.1590 H         1 MOL         0.4000 
     30 H10        -1.7160   -4.5290   -7.2490 H         1 MOL         0.1500 
     31 H11        -3.5240   -4.4420   -8.9370 H         1 MOL         0.1500 
     32 H12        -5.7960   -7.3250   -6.7130 H         1 MOL         0.1500 
     33 H13        -4.0210   -7.4080   -4.9930 H         1 MOL         0.1500 
     34 H14        -7.4170   -6.3890   -9.9380 H         1 MOL         0.0000 
     35 H15        -7.5260   -6.1730   -8.1710 H         1 MOL         0.0000 
     36 H16        -6.7770   -7.6540   -8.8560 H         1 MOL         0.0000 
@<TRIPOS>BOND
     1    1    2 2    
     2    2    3 2    
     3    2    4 am   
     4    2   13 1    
     5    4    5 1    
     6    4   10 1    
     7    5    6 1    
     8    6    7 2    
     9    6    8 am   
    10    8    9 1    
    11   10   11 1    
    12   11   12 1    
    13   13   14 ar   
    14   13   18 ar   
    15   14   15 ar   
    16   15   16 ar   
    17   16   17 ar   
    18   16   19 1    
    19   17   18 ar   
    20   19   20 1    
    21    5   21 1    
    22    5   22 1    
    23    8   23 1    
    24    9   24 1    
    25   10   25 1    
    26   10   26 1    
    27   11   27 1    
    28   11   28 1    
    29   12   29 1    
    30   14   30 1    
    31   15   31 1    
    32   17   32 1    
    33   18   33 1    
    34   20   34 1    
    35   20   35 1    
    36   20   36 1    
@<TRIPOS>SUBSTRUCTURE
     1 MOL         1 PERM              0 ****  ****    0 ROOT 
@<TRIPOS>NORMAL
@<TRIPOS>ALT_TYPE
MMFF94_ALT_TYPE_SET 
MMFF94 5 CR 10 CR 11 CR 20 CR 13 CB 14 CB 15 CB 16 CB 17 CB 18 CB 6 C=ON \
21 HC 22 HC 25 HC 26 HC 27 HC 28 HC 30 HC 31 HC 32 HC \
33 HC 34 HC 35 HC 36 HC 23 HNCO 29 HOR 24 HO 7 O=CN 1 O2S \
3 O2S 19 OC=C 12 OR 9 -O- 4 NSO2 8 NC=O 2 SO2N 
