#	Name:			4agp_ligand
#	Creating user name:	suminyi
#	Creation time:		Sun Sep 30 06:50:59 2018

#	Modifying user name:	suminyi
#	Modification time:	Sun Sep 30 06:51:00 2018

@<TRIPOS>MOLECULE
4agp_ligand
   63    65     1     1     0
SMALL
MMFF94_CHARGES


@<TRIPOS>ATOM
      1 C01        91.4960   93.3310  -45.3680 C.ar      1 MOL         0.0730 
      2 C04        91.6520   92.2620  -46.3190 C.1       1 MOL        -0.0730 
      3 C05        91.8520   91.3540  -47.1120 C.1       1 MOL        -0.2000 
      4 C06        92.1680   90.2690  -48.0610 C.3       1 MOL         0.4800 
      5 O          90.9810   89.8560  -48.7840 O.3       1 MOL        -0.3625 
      6 C07        90.3110   90.6540  -49.6900 C.ar      1 MOL         0.0825 
      7 C1         90.8820   95.6250  -44.8320 C.ar      1 MOL        -0.1435 
      8 N1         90.8010   98.1480  -44.6370 N.4       1 MOL        -0.9590 
      9 O1         91.1820   96.3890  -42.5680 O.3       1 MOL        -0.5325 
     10 C02        91.9030   93.1300  -44.0550 C.ar      1 MOL        -0.1500 
     11 C2         90.2060   96.9160  -45.2710 C.3       1 MOL         0.6465 
     12 N2         92.2600  102.3380  -44.0860 N.4       1 MOL        -0.9590 
     13 C03        89.7970   99.2720  -44.5030 C.3       1 MOL         0.5030 
     14 C3         90.9650   94.5660  -45.7450 C.ar      1 MOL        -0.1500 
     15 C4         91.8220   94.1730  -43.1420 C.ar      1 MOL         0.0810 
     16 C7         91.3210   95.4180  -43.5160 C.ar      1 MOL         0.0825 
     17 C8         90.4040  100.5120  -43.8140 C.3       1 MOL         0.0000 
     18 C10        91.6460  101.0260  -44.5940 C.3       1 MOL         0.5030 
     19 C11        93.1770  102.1470  -42.8810 C.3       1 MOL         0.5030 
     20 C12        94.0800  103.3610  -42.5890 C.3       1 MOL         0.0000 
     21 C13        91.2120  103.4070  -43.7740 C.3       1 MOL         0.5030 
     22 C14        90.3850  103.8970  -44.9780 C.3       1 MOL         0.0000 
     23 C15        92.6710   99.8640  -44.7150 C.3       1 MOL         0.0000 
     24 C16        92.0550   98.6050  -45.3580 C.3       1 MOL         0.5030 
     25 I2         92.4530   93.8060  -41.1860 I         1 MOL        -0.0810 
     26 C08        89.0200   90.2770  -50.0450 C.ar      1 MOL        -0.1500 
     27 C09        88.2970   91.0280  -50.9690 C.ar      1 MOL        -0.1500 
     28 C17        88.8710   92.1590  -51.5480 C.ar      1 MOL        -0.1500 
     29 C18        90.1660   92.5380  -51.2000 C.ar      1 MOL        -0.1500 
     30 C          90.8850   91.7870  -50.2720 C.ar      1 MOL        -0.1500 
     31 H1         92.5560   89.4140  -47.5050 H         1 MOL         0.0000 
     32 H2         92.9360   90.5940  -48.7640 H         1 MOL         0.0000 
     33 H3         91.0530   97.8160  -43.6660 H         1 MOL         0.4500 
     34 H4         91.2720   95.9620  -41.6840 H         1 MOL         0.4500 
     35 H5         92.2620   92.1540  -43.7350 H         1 MOL         0.1500 
     36 H6         89.1500   96.8680  -44.9860 H         1 MOL         0.0000 
     37 H7         90.2680   97.0320  -46.3580 H         1 MOL         0.0000 
     38 H8         92.8900  102.7050  -44.8330 H         1 MOL         0.4500 
     39 H9         88.9410   98.9040  -43.9240 H         1 MOL         0.0000 
     40 H10        89.4450   99.5320  -45.5070 H         1 MOL         0.0000 
     41 H11        90.5740   94.6830  -46.7520 H         1 MOL         0.1500 
     42 H12        90.6720  100.2700  -42.7810 H         1 MOL         0.0000 
     43 H13        89.6220  101.2730  -43.7650 H         1 MOL         0.0000 
     44 H14        91.3040  101.2630  -45.6060 H         1 MOL         0.0000 
     45 H15        93.8360  101.2980  -43.0860 H         1 MOL         0.0000 
     46 H16        92.5610  101.9000  -42.0100 H         1 MOL         0.0000 
     47 H17        94.7970  103.1120  -41.8020 H         1 MOL         0.0000 
     48 H18        93.5030  104.2250  -42.2530 H         1 MOL         0.0000 
     49 H19        94.6540  103.6440  -43.4750 H         1 MOL         0.0000 
     50 H20        91.7320  104.2650  -43.3380 H         1 MOL         0.0000 
     51 H21        90.5460  103.0070  -43.0010 H         1 MOL         0.0000 
     52 H22        89.6460  104.6320  -44.6440 H         1 MOL         0.0000 
     53 H23        89.8410  103.0810  -45.4570 H         1 MOL         0.0000 
     54 H24        91.0220  104.3800  -45.7220 H         1 MOL         0.0000 
     55 H25        93.0420   99.5840  -43.7270 H         1 MOL         0.0000 
     56 H26        93.5350  100.1890  -45.2990 H         1 MOL         0.0000 
     57 H27        91.7970   98.7970  -46.4050 H         1 MOL         0.0000 
     58 H28        92.7770   97.7790  -45.3360 H         1 MOL         0.0000 
     59 H29        88.5810   89.3920  -49.5920 H         1 MOL         0.1500 
     60 H30        87.2860   90.7280  -51.2420 H         1 MOL         0.1500 
     61 H31        88.3090   92.7400  -52.2760 H         1 MOL         0.1500 
     62 H32        90.6230   93.4130  -51.6600 H         1 MOL         0.1500 
     63 H33        91.8930   92.0870  -50.0170 H         1 MOL         0.1500 
@<TRIPOS>BOND
     1    1    2 1    
     2    1   10 ar   
     3   14    1 ar   
     4    2    3 3    
     5    3    4 1    
     6    4    5 1    
     7    5    6 1    
     8    6   26 ar   
     9    6   30 ar   
    10   11    7 1    
    11    7   14 ar   
    12    7   16 ar   
    13    8   11 1    
    14   13    8 1    
    15    8   24 1    
    16   16    9 1    
    17   15   10 ar   
    18   18   12 1    
    19   12   19 1    
    20   12   21 1    
    21   17   13 1    
    22   16   15 ar   
    23   15   25 1    
    24   17   18 1    
    25   18   23 1    
    26   19   20 1    
    27   21   22 1    
    28   23   24 1    
    29   26   27 ar   
    30   27   28 ar   
    31   28   29 ar   
    32   29   30 ar   
    33    4   31 1    
    34    4   32 1    
    35    8   33 1    
    36    9   34 1    
    37   10   35 1    
    38   11   36 1    
    39   11   37 1    
    40   12   38 1    
    41   13   39 1    
    42   13   40 1    
    43   14   41 1    
    44   17   42 1    
    45   17   43 1    
    46   18   44 1    
    47   19   45 1    
    48   19   46 1    
    49   20   47 1    
    50   20   48 1    
    51   20   49 1    
    52   21   50 1    
    53   21   51 1    
    54   22   52 1    
    55   22   53 1    
    56   22   54 1    
    57   23   55 1    
    58   23   56 1    
    59   24   57 1    
    60   24   58 1    
    61   26   59 1    
    62   27   60 1    
    63   28   61 1    
    64   29   62 1    
    65   30   63 1    
@<TRIPOS>SUBSTRUCTURE
     1 MOL         1 PERM              0 ****  ****    0 ROOT 
@<TRIPOS>NORMAL
@<TRIPOS>ALT_TYPE
MMFF94_ALT_TYPE_SET 
MMFF94 4 CR 11 CR 13 CR 17 CR 18 CR 19 CR 20 CR 21 CR 22 CR 23 CR 24 CR \
1 CB 6 CB 7 CB 10 CB 14 CB 15 CB 16 CB 26 CB 27 CB 28 CB \
29 CB 30 CB 2 CSP 3 CSP 31 HC 32 HC 35 HC 36 HC 37 HC \
39 HC 40 HC 41 HC 42 HC 43 HC 44 HC 45 HC 46 HC 47 HC \
48 HC 49 HC 50 HC 51 HC 52 HC 53 HC 54 HC 55 HC 56 HC \
57 HC 58 HC 59 HC 60 HC 61 HC 62 HC 63 HC 33 HNR+ 38 HNR+ \
34 HOCC 5 OC=C 9 OC=C 8 NR+ 12 NR+ 25 I 
