#	Name:			4agp_ligand
#	Creating user name:	suminyi
#	Creation time:		Sun Sep 30 06:48:59 2018

#	Modifying user name:	suminyi
#	Modification time:	Sun Sep 30 06:48:59 2018

@<TRIPOS>MOLECULE
4agp_ligand
   63    65     1     1     0
SMALL
MMFF94_CHARGES


@<TRIPOS>ATOM
      1 C01        91.5770   93.4520  -45.2950 C.ar      1 P51         0.0730 
      2 C04        91.7530   92.3450  -46.1880 C.1       1 P51        -0.0730 
      3 C05        91.8950   91.4530  -46.9720 C.1       1 P51        -0.2000 
      4 C06        92.1440   90.3480  -47.9190 C.3       1 P51         0.4800 
      5 O          90.9260   89.9330  -48.5430 O.3       1 P51        -0.3625 
      6 C07        90.3680   90.7330  -49.5100 C.ar      1 P51         0.0825 
      7 C1         90.9060   95.7610  -44.9550 C.ar      1 P51        -0.1435 
      8 N1         90.8320   98.2450  -44.8170 N.4       1 P51        -0.9590 
      9 O1         91.0790   96.7610  -42.7680 O.3       1 P51        -0.5325 
     10 C02        91.9220   93.3360  -43.9450 C.ar      1 P51        -0.1500 
     11 C2         90.3530   97.0310  -45.5320 C.3       1 P51         0.6465 
     12 N2         92.0580  102.3500  -44.2520 N.4       1 P51        -0.9590 
     13 C03        89.7980   99.3400  -44.8630 C.3       1 P51         0.5030 
     14 C3         91.0740   94.6640  -45.8050 C.ar      1 P51        -0.1500 
     15 C4         91.7430   94.4530  -43.1210 C.ar      1 P51         0.0810 
     16 C7         91.2390   95.6800  -43.5770 C.ar      1 P51         0.0825 
     17 C8         90.3350  100.5070  -44.0570 C.3       1 P51         0.0000 
     18 C10        91.5700  100.9970  -44.8020 C.3       1 P51         0.5030 
     19 C11        93.0710  102.1710  -43.1140 C.3       1 P51         0.5030 
     20 C12        93.7770  103.4970  -42.9020 C.3       1 P51         0.0000 
     21 C13        90.9580  103.2970  -43.7890 C.3       1 P51         0.5030 
     22 C14        90.1540  103.9020  -44.9310 C.3       1 P51         0.0000 
     23 C15        92.6740   99.9330  -44.6790 C.3       1 P51         0.0000 
     24 C16        92.1560   98.6850  -45.3690 C.3       1 P51         0.5030 
     25 I2         92.2500   94.2730  -41.0690 I         1 P51        -0.0810 
     26 C08        89.1070   90.3130  -49.9440 C.ar      1 P51        -0.1500 
     27 C09        88.4200   91.0300  -50.9270 C.ar      1 P51        -0.1500 
     28 C17        88.9920   92.1730  -51.4820 C.ar      1 P51        -0.1500 
     29 C18        90.2540   92.5960  -51.0580 C.ar      1 P51        -0.1500 
     30 C          90.9380   91.8770  -50.0700 C.ar      1 P51        -0.1500 
     31 H1         92.5790   89.4969  -47.3746 H         1 P51         0.0000 
     32 H2         92.8486   90.6872  -48.6926 H         1 P51         0.0000 
     33 H3         90.9711   98.0002  -43.8492 H         1 P51         0.4500 
     34 H4         91.3468   96.5364  -41.8846 H         1 P51         0.4500 
     35 H5         92.3167   92.4077  -43.5481 H         1 P51         0.1500 
     36 H6         89.2553   96.9967  -45.4699 H         1 P51         0.0000 
     37 H7         90.6587   97.1005  -46.5864 H         1 P51         0.0000 
     38 H8         92.5352  102.8078  -45.0127 H         1 P51         0.4500 
     39 H9         88.8538   98.9839  -44.4252 H         1 P51         0.0000 
     40 H10        89.6254   99.6503  -45.9041 H         1 P51         0.0000 
     41 H11        90.8174   94.7464  -46.8550 H         1 P51         0.1500 
     42 H12        90.6055  100.1789  -43.0425 H         1 P51         0.0000 
     43 H13        89.5830  101.3074  -43.9953 H         1 P51         0.0000 
     44 H14        91.3149  101.1256  -45.8643 H         1 P51         0.0000 
     45 H15        93.8041  101.3970  -43.3851 H         1 P51         0.0000 
     46 H16        92.5487  101.8747  -42.1924 H         1 P51         0.0000 
     47 H17        94.5109  103.3957  -42.0889 H         1 P51         0.0000 
     48 H18        93.0383  104.2672  -42.6353 H         1 P51         0.0000 
     49 H19        94.2937  103.7895  -43.8280 H         1 P51         0.0000 
     50 H20        91.4211  104.1153  -43.2182 H         1 P51         0.0000 
     51 H21        90.2701  102.7387  -43.1371 H         1 P51         0.0000 
     52 H22        89.3826  104.5711  -44.5221 H         1 P51         0.0000 
     53 H23        89.6736  103.0978  -45.5076 H         1 P51         0.0000 
     54 H24        90.8247  104.4744  -45.5886 H         1 P51         0.0000 
     55 H25        92.8808   99.7221  -43.6194 H         1 P51         0.0000 
     56 H26        93.5942  100.2831  -45.1696 H         1 P51         0.0000 
     57 H27        92.0409   98.8949  -46.4426 H         1 P51         0.0000 
     58 H28        92.8858   97.8738  -45.2301 H         1 P51         0.0000 
     59 H29        88.6589   89.4243  -49.5146 H         1 P51         0.1500 
     60 H30        87.4427   90.6973  -51.2576 H         1 P51         0.1500 
     61 H31        88.4585   92.7330  -52.2415 H         1 P51         0.1500 
     62 H32        90.7038   93.4808  -51.4938 H         1 P51         0.1500 
     63 H33        91.9147   92.2106  -49.7387 H         1 P51         0.1500 
@<TRIPOS>BOND
     1    1    2 1    
     2    1   10 ar   
     3   14    1 ar   
     4    2    3 3    
     5    3    4 1    
     6    4    5 1    
     7    5    6 1    
     8    6   26 ar   
     9    6   30 ar   
    10   11    7 1    
    11    7   14 ar   
    12    7   16 ar   
    13    8   11 1    
    14   13    8 1    
    15    8   24 1    
    16   16    9 1    
    17   15   10 ar   
    18   18   12 1    
    19   12   19 1    
    20   12   21 1    
    21   17   13 1    
    22   16   15 ar   
    23   15   25 1    
    24   17   18 1    
    25   18   23 1    
    26   19   20 1    
    27   21   22 1    
    28   23   24 1    
    29   26   27 ar   
    30   27   28 ar   
    31   28   29 ar   
    32   29   30 ar   
    33    4   31 1    
    34    4   32 1    
    35    8   33 1    
    36    9   34 1    
    37   10   35 1    
    38   11   36 1    
    39   11   37 1    
    40   12   38 1    
    41   13   39 1    
    42   13   40 1    
    43   14   41 1    
    44   17   42 1    
    45   17   43 1    
    46   18   44 1    
    47   19   45 1    
    48   19   46 1    
    49   20   47 1    
    50   20   48 1    
    51   20   49 1    
    52   21   50 1    
    53   21   51 1    
    54   22   52 1    
    55   22   53 1    
    56   22   54 1    
    57   23   55 1    
    58   23   56 1    
    59   24   57 1    
    60   24   58 1    
    61   26   59 1    
    62   27   60 1    
    63   28   61 1    
    64   29   62 1    
    65   30   63 1    
@<TRIPOS>SUBSTRUCTURE
     1 P51         1 PERM              0 ****  ****    0 ROOT 
@<TRIPOS>NORMAL
@<TRIPOS>ALT_TYPE
MMFF94_ALT_TYPE_SET 
MMFF94 4 CR 11 CR 13 CR 17 CR 18 CR 19 CR 20 CR 21 CR 22 CR 23 CR 24 CR \
1 CB 6 CB 7 CB 10 CB 14 CB 15 CB 16 CB 26 CB 27 CB 28 CB \
29 CB 30 CB 2 CSP 3 CSP 31 HC 32 HC 35 HC 36 HC 37 HC \
39 HC 40 HC 41 HC 42 HC 43 HC 44 HC 45 HC 46 HC 47 HC \
48 HC 49 HC 50 HC 51 HC 52 HC 53 HC 54 HC 55 HC 56 HC \
57 HC 58 HC 59 HC 60 HC 61 HC 62 HC 63 HC 33 HNR+ 38 HNR+ \
34 HOCC 5 OC=C 9 OC=C 8 NR+ 12 NR+ 25 I 
