#	Name:			4f2w_ligand
#	Creating user name:	suminyi
#	Creation time:		Sun Sep 30 06:51:02 2018

#	Modifying user name:	suminyi
#	Modification time:	Sun Sep 30 06:51:02 2018

@<TRIPOS>MOLECULE
4f2w_ligand
   40    42     1     1     0
SMALL
MMFF94_CHARGES


@<TRIPOS>ATOM
      1 C2          3.0570  -21.7980  -10.8620 C.ar      1 MOL         0.4700 
      2 C4          3.8820  -20.5160  -12.5130 C.ar      1 MOL         0.2560 
      3 C5          4.1260  -21.6060  -13.2630 C.ar      1 MOL        -0.1516 
      4 C6          3.7670  -22.8310  -12.7570 C.ar      1 MOL         0.4100 
      5 CS5         9.9920  -18.8850   -9.8050 C.3       1 MOL         0.2300 
      6 S           8.3290  -19.2720   -9.1590 S.3       1 MOL        -0.4600 
      7 C5'         7.3170  -19.0020  -10.6490 C.3       1 MOL         0.2300 
      8 C4'         6.9140  -17.5300  -10.8540 C.3       1 MOL         0.0000 
      9 C1'         6.2910  -17.3730  -12.2530 C.3       1 MOL         0.5030 
     10 N1'         4.8080  -17.1820  -12.0750 N.4       1 MOL        -0.9590 
     11 C10         3.9540  -17.9090  -13.0780 C.3       1 MOL         0.6840 
     12 C9          4.2270  -19.3750  -13.2820 C.2       1 MOL        -0.1810 
     13 C8          4.7080  -19.8710  -14.4850 C.2       1 MOL        -0.3016 
     14 N7          4.6770  -21.2630  -14.4510 N.pl3     1 MOL         0.0332 
     15 N6          3.9020  -23.9700  -13.4400 N.pl3     1 MOL        -0.9000 
     16 N1          3.2260  -22.9580  -11.5420 N.ar      1 MOL        -0.6200 
     17 N3          3.3570  -20.5500  -11.2910 N.ar      1 MOL        -0.5660 
     18 C2'         4.5220  -17.5360  -10.6360 C.3       1 MOL         0.5030 
     19 C3'         5.7840  -17.1300   -9.8830 C.3       1 MOL         0.2800 
     20 O3'         5.7720  -15.7080   -9.7560 O.3       1 MOL        -0.6800 
     21 H1          2.6200  -21.8780   -9.8690 H         1 MOL         0.1500 
     22 H2         10.7280  -18.9960   -9.0040 H         1 MOL         0.0000 
     23 H3         10.0140  -17.8600  -10.1830 H         1 MOL         0.0000 
     24 H4         10.2400  -19.5760  -10.6170 H         1 MOL         0.0000 
     25 H5          6.4030  -19.5930  -10.5580 H         1 MOL         0.0000 
     26 H6          7.8790  -19.3660  -11.5150 H         1 MOL         0.0000 
     27 H7          7.7810  -16.8740  -10.7450 H         1 MOL         0.0000 
     28 H8          6.4610  -18.2610  -12.8640 H         1 MOL         0.0000 
     29 H9          6.6810  -16.4860  -12.7640 H         1 MOL         0.0000 
     30 H10         4.6830  -16.1500  -12.1560 H         1 MOL         0.4500 
     31 H11         4.0940  -17.3900  -14.0300 H         1 MOL         0.0000 
     32 H12         2.9140  -17.7730  -12.7750 H         1 MOL         0.0000 
     33 H13         5.0260  -19.3550  -15.3820 H         1 MOL         0.1500 
     34 H14         5.0370  -21.8890  -15.1930 H         1 MOL         0.2700 
     35 H15         4.1220  -24.7710  -12.8710 H         1 MOL         0.4000 
     36 H16         4.3560  -23.9300  -14.3600 H         1 MOL         0.4000 
     37 H17         4.3690  -18.6150  -10.5570 H         1 MOL         0.0000 
     38 H18         3.6410  -16.9970  -10.2740 H         1 MOL         0.0000 
     39 H19         5.8680  -17.6260   -8.9110 H         1 MOL         0.0000 
     40 H20         5.0130  -15.4140   -9.1350 H         1 MOL         0.4000 
@<TRIPOS>BOND
     1    1   16 ar   
     2   17    1 ar   
     3    2    3 ar   
     4   12    2 1    
     5    2   17 ar   
     6    3    4 ar   
     7    3   14 1    
     8    4   15 1    
     9    4   16 ar   
    10    6    5 1    
    11    7    6 1    
    12    8    7 1    
    13    9    8 1    
    14    8   19 1    
    15   10    9 1    
    16   11   10 1    
    17   10   18 1    
    18   11   12 1    
    19   12   13 2    
    20   13   14 1    
    21   18   19 1    
    22   19   20 1    
    23    1   21 1    
    24    5   22 1    
    25    5   23 1    
    26    5   24 1    
    27    7   25 1    
    28    7   26 1    
    29    8   27 1    
    30    9   28 1    
    31    9   29 1    
    32   10   30 1    
    33   11   31 1    
    34   11   32 1    
    35   13   33 1    
    36   14   34 1    
    37   15   35 1    
    38   15   36 1    
    39   18   37 1    
    40   18   38 1    
    41   19   39 1    
    42   20   40 1    
@<TRIPOS>SUBSTRUCTURE
     1 MOL         1 PERM              0 ****  ****    0 ROOT 
@<TRIPOS>NORMAL
@<TRIPOS>ALT_TYPE
MMFF94_ALT_TYPE_SET 
MMFF94 5 CR 7 CR 8 CR 9 CR 11 CR 18 CR 19 CR 13 C5A 3 C5A 12 C5B 2 C5B \
1 CB 4 CB 21 HC 22 HC 23 HC 24 HC 25 HC 26 HC 27 HC 28 HC \
29 HC 31 HC 32 HC 33 HC 37 HC 38 HC 39 HC 34 HPYL 35 HNCC \
36 HNCC 30 HNR+ 40 HOR 20 OR 16 NPYD 17 NPYD 14 NPYL \
10 NR+ 15 NC=N 6 S
