#	Name:			1oyt_ligand
#	Creating user name:	suminyi
#	Creation time:		Sun Sep 30 06:51:11 2018

#	Modifying user name:	suminyi
#	Modification time:	Sun Sep 30 06:51:11 2018

@<TRIPOS>MOLECULE
1oyt_ligand
   55    59     1     1     0
SMALL
MMFF94_CHARGES


@<TRIPOS>ATOM
      1 O21        16.5860  -12.8390   22.7300 O.2       1 MOL        -0.5700 
      2 C20        17.3060  -12.6680   21.7730 C.2       1 MOL         0.5690 
      3 N19        18.3070  -13.4740   21.4100 N.am      1 MOL        -0.4201 
      4 C23        18.7010  -14.6580   22.1860 C.3       1 MOL         0.4436 
      5 C24        19.5880  -14.2990   23.3590 C.ar      1 MOL        -0.1435 
      6 C32        19.0310  -14.2060   24.6360 C.ar      1 MOL        -0.1500 
      7 C31        19.8480  -13.9390   25.7310 C.ar      1 MOL        -0.1500 
      8 C30        21.2130  -13.7620   25.5490 C.ar      1 MOL         0.1900 
      9 F29        21.9910  -13.5270   26.6100 F         1 MOL        -0.1900 
     10 C26        21.7750  -13.8420   24.2800 C.ar      1 MOL        -0.1500 
     11 C25        20.9620  -14.1080   23.1790 C.ar      1 MOL        -0.1500 
     12 C17        18.8990  -13.1370   20.2660 C.2       1 MOL         0.5690 
     13 O18        19.8470  -13.6920   19.7680 O.2       1 MOL        -0.5700 
     14 C16        18.1150  -12.0340   19.6160 C.3       1 MOL         0.0610 
     15 C15        17.1980  -12.6170   18.5170 C.3       1 MOL         0.5030 
     16 N11        15.7740  -12.5700   19.0170 N.4       1 MOL        -0.9590 
     17 C12        14.9030  -12.2700   17.8090 C.3       1 MOL         0.5030 
     18 C13        15.8310  -12.1280   16.5920 C.3       1 MOL         0.0000 
     19 C14        17.2100  -11.8190   17.2030 C.3       1 MOL         0.0000 
     20 C10        15.7850  -11.4790   20.0660 C.3       1 MOL         0.6465 
     21 C7         14.6040  -11.4030   21.0310 C.ar      1 MOL        -0.1435 
     22 C8         13.8420  -12.5250   21.3670 C.ar      1 MOL        -0.1500 
     23 C9         12.7970  -12.4250   22.2830 C.ar      1 MOL        -0.1500 
     24 C4         12.4760  -11.1980   22.8790 C.ar      1 MOL        -0.0220 
     25 C5         13.2330  -10.0720   22.5280 C.ar      1 MOL        -0.1500 
     26 C6         14.2920  -10.1790   21.6270 C.ar      1 MOL        -0.1500 
     27 C3         11.3760  -11.0970   23.8760 C.cat     1 MOL         0.7308 
     28 N1         10.7090  -12.2050   24.3420 N.pl3     1 MOL        -1.1924 
     29 N2         11.0900   -9.9160   24.5320 N.pl3     1 MOL        -1.1924 
     30 C22        17.1660  -11.5700   20.7420 C.3       1 MOL         0.0610 
     31 H1         19.2280  -15.3680   21.5390 H         1 MOL         0.0000 
     32 H2         17.7990  -15.1640   22.5470 H         1 MOL         0.0000 
     33 H3         17.9610  -14.3490   24.7870 H         1 MOL         0.1500 
     34 H4         19.4330  -13.8690   26.7330 H         1 MOL         0.1500 
     35 H5         22.8480  -13.7050   24.1690 H         1 MOL         0.1500 
     36 H6         21.4050  -14.1830   22.1860 H         1 MOL         0.1500 
     37 H7         18.8020  -11.2550   19.2750 H         1 MOL         0.0000 
     38 H8         17.4500  -13.6640   18.3050 H         1 MOL         0.0000 
     39 H9         15.5020  -13.4760   19.4530 H         1 MOL         0.4500 
     40 H10        14.3550  -11.3420   18.0000 H         1 MOL         0.0000 
     41 H11        14.1880  -13.0880   17.6580 H         1 MOL         0.0000 
     42 H12        15.4880  -11.3550   15.8980 H         1 MOL         0.0000 
     43 H13        15.8540  -13.0790   16.0440 H         1 MOL         0.0000 
     44 H14        18.0320  -12.1160   16.5490 H         1 MOL         0.0000 
     45 H15        17.2930  -10.7490   17.4000 H         1 MOL         0.0000 
     46 H16        15.7770  -10.5430   19.5020 H         1 MOL         0.0000 
     47 H17        14.0710  -13.5040   20.9570 H         1 MOL         0.1500 
     48 H18        12.2440  -13.3300   22.5270 H         1 MOL         0.1500 
     49 H19        13.0280   -9.1040   22.9840 H         1 MOL         0.1500 
     50 H20        14.9080   -9.3010   21.4320 H         1 MOL         0.1500 
     51 H21         9.7780  -12.0460   24.7420 H         1 MOL         0.6690 
     52 H22        10.7970  -13.0850   23.8400 H         1 MOL         0.6690 
     53 H23        11.8210   -9.6070   25.1590 H         1 MOL         0.6690 
     54 H24        10.1480   -9.8800   24.9520 H         1 MOL         0.6690 
     55 H25        17.4970  -10.6320   21.1900 H         1 MOL         0.0000 
@<TRIPOS>BOND
     1    1    2 2    
     2    2    3 am   
     3    2   30 1    
     4    3    4 1    
     5    3   12 am   
     6    4    5 1    
     7    5    6 ar   
     8    5   11 ar   
     9    6    7 ar   
    10    7    8 ar   
    11    8    9 1    
    12    8   10 ar   
    13   10   11 ar   
    14   12   13 2    
    15   12   14 1    
    16   14   15 1    
    17   14   30 1    
    18   15   16 1    
    19   15   19 1    
    20   16   17 1    
    21   16   20 1    
    22   17   18 1    
    23   18   19 1    
    24   20   21 1    
    25   20   30 1    
    26   21   22 ar   
    27   21   26 ar   
    28   22   23 ar   
    29   23   24 ar   
    30   24   25 ar   
    31   24   27 1    
    32   25   26 ar   
    33   27   28 ar   
    34   27   29 ar   
    35    4   31 1    
    36    4   32 1    
    37    6   33 1    
    38    7   34 1    
    39   10   35 1    
    40   11   36 1    
    41   14   37 1    
    42   15   38 1    
    43   16   39 1    
    44   17   40 1    
    45   17   41 1    
    46   18   42 1    
    47   18   43 1    
    48   19   44 1    
    49   19   45 1    
    50   20   46 1    
    51   22   47 1    
    52   23   48 1    
    53   25   49 1    
    54   26   50 1    
    55   28   51 1    
    56   28   52 1    
    57   29   53 1    
    58   29   54 1    
    59   30   55 1    
@<TRIPOS>SUBSTRUCTURE
     1 MOL         1 PERM              0 ****  ****    0 ROOT 
@<TRIPOS>NORMAL
@<TRIPOS>ALT_TYPE
MMFF94_ALT_TYPE_SET 
MMFF94 4 CR 14 CR 15 CR 17 CR 18 CR 19 CR 20 CR 30 CR 5 CB 6 CB 7 CB \
8 CB 10 CB 11 CB 21 CB 22 CB 23 CB 24 CB 25 CB 26 CB 27 CNN+ \
2 C=ON 12 C=ON 31 HC 32 HC 33 HC 34 HC 35 HC 36 HC \
37 HC 38 HC 40 HC 41 HC 42 HC 43 HC 44 HC 45 HC 46 HC \
47 HC 48 HC 49 HC 50 HC 55 HC 39 HNR+ 51 HN 52 HN 53 HN \
54 HN 1 O=CN 13 O=CN 16 NR+ 28 NCN+ 29 NCN+ 3 NC=O 9 F \

