#	Name:			1y6r_ligand
#	Creating user name:	suminyi
#	Creation time:		Sun Sep 30 06:51:00 2018

#	Modifying user name:	suminyi
#	Modification time:	Sun Sep 30 06:51:00 2018

@<TRIPOS>MOLECULE
1y6r_ligand
   38    40     1     1     0
SMALL
MMFF94_CHARGES


@<TRIPOS>ATOM
      1 CS         56.1120   68.7660   22.5600 C.3       1 MOL         0.2300 
      2 S5         55.5810   70.4040   23.1620 S.3       1 MOL        -0.4600 
      3 C5         56.2130   71.5070   21.8540 C.3       1 MOL         0.2300 
      4 C4         57.6990   71.8900   22.0280 C.3       1 MOL         0.5030 
      5 N4         58.3540   72.3130   20.7450 N.4       1 MOL        -0.9060 
      6 C2         57.9430   74.3340   22.0100 C.3       1 MOL         0.2800 
      7 O2         59.1680   75.0750   22.1880 O.3       1 MOL        -0.6800 
      8 C3         57.8510   73.1040   22.9660 C.3       1 MOL         0.2800 
      9 O3         59.0580   72.8950   23.7150 O.3       1 MOL        -0.6800 
     10 C1         57.9850   73.7510   20.5690 C.3       1 MOL         0.6840 
     11 C9         56.7620   73.9150   19.6860 C.2       1 MOL        -0.1810 
     12 C8         56.8080   73.6500   18.3190 C.2       1 MOL        -0.3016 
     13 N7         55.5470   73.8520   17.7590 N.pl3     1 MOL         0.0332 
     14 C7         54.7580   74.3190   18.7530 C.ar      1 MOL        -0.1516 
     15 C6         53.4310   74.6840   18.7560 C.ar      1 MOL         0.4100 
     16 N6         52.6350   74.6280   17.6860 N.pl3     1 MOL        -0.9000 
     17 N1         52.8180   75.0940   19.8650 N.ar      1 MOL        -0.6200 
     18 C11        53.5940   75.1360   20.9700 C.ar      1 MOL         0.4700 
     19 N3         54.8920   74.7680   21.0650 N.ar      1 MOL        -0.5660 
     20 C10        55.4330   74.3690   19.9180 C.ar      1 MOL         0.2560 
     21 H1         55.7820   67.9990   23.2670 H         1 MOL         0.0000 
     22 H2         57.2010   68.7380   22.4700 H         1 MOL         0.0000 
     23 H3         55.6570   68.5690   21.5850 H         1 MOL         0.0000 
     24 H4         55.6100   72.4180   21.8650 H         1 MOL         0.0000 
     25 H5         56.0620   71.0110   20.8910 H         1 MOL         0.0000 
     26 H6         58.2550   71.0350   22.4280 H         1 MOL         0.0000 
     27 H7         58.1040   71.7340   19.9410 H         1 MOL         0.4500 
     28 H8         59.3930   72.2910   20.8720 H         1 MOL         0.4500 
     29 H9         57.0780   74.9840   22.1460 H         1 MOL         0.0000 
     30 H10        59.4960   75.1220   23.1510 H         1 MOL         0.4000 
     31 H11        56.9940   73.1910   23.6400 H         1 MOL         0.0000 
     32 H12        59.1120   73.5590   24.4850 H         1 MOL         0.4000 
     33 H13        58.8200   74.2280   20.0420 H         1 MOL         0.0000 
     34 H14        57.6270   73.3290   17.6870 H         1 MOL         0.1500 
     35 H15        55.2690   73.6020   16.7930 H         1 MOL         0.2700 
     36 H16        51.6690   74.4510   17.9130 H         1 MOL         0.4000 
     37 H17        52.9980   74.2350   16.8110 H         1 MOL         0.4000 
     38 H18        53.1220   75.4860   21.8840 H         1 MOL         0.1500 
@<TRIPOS>BOND
     1    2    1 1    
     2    3    2 1    
     3    4    3 1    
     4    4    5 1    
     5    8    4 1    
     6    5   10 1    
     7    6    7 1    
     8    6    8 1    
     9    6   10 1    
    10    8    9 1    
    11   10   11 1    
    12   11   12 2    
    13   11   20 1    
    14   12   13 1    
    15   13   14 1    
    16   14   15 ar   
    17   14   20 ar   
    18   15   16 1    
    19   15   17 ar   
    20   17   18 ar   
    21   18   19 ar   
    22   19   20 ar   
    23    1   21 1    
    24    1   22 1    
    25    1   23 1    
    26    3   24 1    
    27    3   25 1    
    28    4   26 1    
    29    5   27 1    
    30    5   28 1    
    31    6   29 1    
    32    7   30 1    
    33    8   31 1    
    34    9   32 1    
    35   10   33 1    
    36   12   34 1    
    37   13   35 1    
    38   16   36 1    
    39   16   37 1    
    40   18   38 1    
@<TRIPOS>SUBSTRUCTURE
     1 MOL         1 PERM              0 ****  ****    0 ROOT 
@<TRIPOS>NORMAL
@<TRIPOS>ALT_TYPE
MMFF94_ALT_TYPE_SET 
MMFF94 1 CR 3 CR 4 CR 6 CR 8 CR 10 CR 12 C5A 14 C5A 11 C5B 20 C5B 15 CB \
18 CB 21 HC 22 HC 23 HC 24 HC 25 HC 26 HC 29 HC 31 HC \
33 HC 34 HC 38 HC 35 HPYL 36 HNCC 37 HNCC 27 HNR+ 28 HNR+ \
30 HOR 32 HOR 7 OR 9 OR 17 NPYD 19 NPYD 13 NPYL 5 NR+ \
16 NC=N 2 S 
