#	Name:			3oe5_ligand
#	Creating user name:	suminyi
#	Creation time:		Sun Sep 30 06:48:44 2018

#	Modifying user name:	suminyi
#	Modification time:	Sun Sep 30 06:48:44 2018

@<TRIPOS>MOLECULE
3oe5_ligand
   50    52     1     1     0
SMALL
MMFF94_CHARGES


@<TRIPOS>ATOM
      1 C1         20.4640  -30.3290   13.3220 C.3       1 MOL         0.2800 
      2 C2         19.3870  -31.4330   13.3300 C.3       1 MOL         0.2800 
      3 C3         18.0680  -30.6670   13.2010 C.3       1 MOL         0.5100 
      4 O4         18.4230  -29.4060   12.6160 O.3       1 MOL        -0.5600 
      5 C5         19.7840  -29.4160   12.2560 C.3       1 MOL         0.4182 
      6 C6         19.9180  -30.0030   10.9160 C.2       1 MOL        -0.2882 
      7 S7         16.9500  -31.6140   12.1580 S.3       1 MOL        -0.3315 
      8 O8         20.4770  -29.6200   14.5590 O.3       1 MOL        -0.6800 
      9 O9         19.3800  -32.2120   14.5330 O.3       1 MOL        -0.6800 
     10 C10        20.6800  -29.4420   10.0190 C.2       1 MOL        -0.2882 
     11 C11        15.4090  -31.1400   12.5970 C.ar      1 MOL         0.1015 
     12 C12        20.8460  -29.9740    8.6340 C.3       1 MOL         0.4383 
     13 N13        21.7980  -29.2190    7.8600 N.am      1 MOL        -0.7301 
     14 C14        22.6140  -29.7000    6.9040 C.2       1 MOL         0.5438 
     15 C15        23.6680  -28.8490    6.2960 C.ar      1 MOL         0.0862 
     16 C16        23.6930  -27.4400    6.5000 C.ar      1 MOL         0.0825 
     17 C17        24.7670  -26.7260    5.9020 C.ar      1 MOL         0.0825 
     18 C18        25.7430  -27.2900    5.1300 C.ar      1 MOL        -0.1500 
     19 C19        25.6930  -28.6920    4.9650 C.ar      1 MOL         0.1330 
     20 C20        24.6620  -29.4660    5.5410 C.ar      1 MOL        -0.1500 
     21 N21        26.6930  -29.3600    4.1620 N.2       1 MOL         0.9070 
     22 O22        22.7820  -26.7460    7.1910 O.3       1 MOL        -0.5325 
     23 O23        24.8120  -25.3570    6.0880 O.3       1 MOL        -0.5325 
     24 O24        22.5040  -30.9010    6.5190 O.2       1 MOL        -0.5700 
     25 O25        27.4960  -28.7420    3.5140 O.2       1 MOL        -0.5200 
     26 O26        26.6580  -30.5820    4.1530 O.2       1 MOL        -0.5200 
     27 C27        14.2350  -31.8840   12.1590 C.ar      1 MOL        -0.1500 
     28 C28        12.9550  -31.4860   12.5640 C.ar      1 MOL         0.1600 
     29 N29        12.6990  -30.3950   13.3610 N.ar      1 MOL        -0.6200 
     30 C30        13.8140  -29.6770   13.7730 C.ar      1 MOL         0.1600 
     31 C31        15.1190  -30.0170   13.4290 C.ar      1 MOL        -0.1500 
     32 H1         21.4672  -30.6864   13.0465 H         1 MOL         0.0000 
     33 H2         19.5320  -32.1056   12.4717 H         1 MOL         0.0000 
     34 H3         17.6060  -30.5112   14.1871 H         1 MOL         0.0000 
     35 H4         20.2114  -28.4025   12.2718 H         1 MOL         0.0000 
     36 H5         19.3760  -30.9149   10.6697 H         1 MOL         0.1500 
     37 H6         19.5850  -29.4193   14.8171 H         1 MOL         0.4000 
     38 H7         19.2760  -31.6361   15.2813 H         1 MOL         0.4000 
     39 H8         21.2232  -28.5391   10.2942 H         1 MOL         0.1500 
     40 H9         19.8717  -29.9397    8.1245 H         1 MOL         0.0000 
     41 H10        21.1908  -31.0167    8.6963 H         1 MOL         0.0000 
     42 H11        21.8585  -28.2395    8.0523 H         1 MOL         0.3700 
     43 H12        26.5182  -26.6906    4.6665 H         1 MOL         0.1500 
     44 H13        24.6444  -30.5400    5.3955 H         1 MOL         0.1500 
     45 H14        22.1256  -27.3410    7.5340 H         1 MOL         0.4500 
     46 H15        24.0855  -25.0893    6.6385 H         1 MOL         0.4500 
     47 H16        14.3531  -32.7493   11.5169 H         1 MOL         0.1500 
     48 H17        12.1107  -32.0766   12.2272 H         1 MOL         0.1500 
     49 H18        13.6595  -28.8039   14.3967 H         1 MOL         0.1500 
     50 H19        15.9374  -29.4126   13.8031 H         1 MOL         0.1500 
@<TRIPOS>BOND
     1    1    2 1    
     2    1    5 1    
     3    1    8 1    
     4    2    3 1    
     5    2    9 1    
     6    3    4 1    
     7    3    7 1    
     8    4    5 1    
     9    5    6 1    
    10    6   10 2    
    11    7   11 1    
    12   10   12 1    
    13   11   27 ar   
    14   11   31 ar   
    15   12   13 1    
    16   13   14 am   
    17   14   15 1    
    18   14   24 2    
    19   15   16 ar   
    20   15   20 ar   
    21   16   17 ar   
    22   16   22 1    
    23   17   18 ar   
    24   17   23 1    
    25   18   19 ar   
    26   19   20 ar   
    27   19   21 1    
    28   21   25 2    
    29   21   26 2    
    30   27   28 ar   
    31   28   29 ar   
    32   29   30 ar   
    33   30   31 ar   
    34    1   32 1    
    35    2   33 1    
    36    3   34 1    
    37    5   35 1    
    38    6   36 1    
    39    8   37 1    
    40    9   38 1    
    41   10   39 1    
    42   12   40 1    
    43   12   41 1    
    44   13   42 1    
    45   18   43 1    
    46   20   44 1    
    47   22   45 1    
    48   23   46 1    
    49   27   47 1    
    50   28   48 1    
    51   30   49 1    
    52   31   50 1    
@<TRIPOS>SUBSTRUCTURE
     1 MOL         1 PERM              0 ****  ****    0 ROOT 
@<TRIPOS>NORMAL
@<TRIPOS>ALT_TYPE
MMFF94_ALT_TYPE_SET 
MMFF94 1 CR 2 CR 3 CR 5 CR 12 CR 11 CB 15 CB 16 CB 17 CB 18 CB 19 CB \
20 CB 27 CB 28 CB 30 CB 31 CB 14 C=ON 6 C=C 10 C=C 32 HC \
33 HC 34 HC 35 HC 36 HC 39 HC 40 HC 41 HC 43 HC 44 HC \
47 HC 48 HC 49 HC 50 HC 42 HNCO 45 HOCC 46 HOCC 37 HOR \
38 HOR 24 O=CN 25 O2N 26 O2N 22 OC=C 23 OC=C 4 OR 8 OR \
9 OR 29 NPYD 21 NO2 13 NC=O 7 S 
