#	Name:			3oe5_ligand
#	Creating user name:	suminyi
#	Creation time:		Sun Sep 30 06:50:54 2018

#	Modifying user name:	suminyi
#	Modification time:	Sun Sep 30 06:50:54 2018

@<TRIPOS>MOLECULE
3oe5_ligand
   50    52     1     1     0
SMALL
MMFF94_CHARGES


@<TRIPOS>ATOM
      1 C1         20.3850  -30.4650   13.4880 C.3       1 MOL         0.2800 
      2 C2         19.3340  -31.5820   13.5870 C.3       1 MOL         0.2800 
      3 C3         17.9950  -30.8330   13.4410 C.3       1 MOL         0.5100 
      4 O4         18.3170  -29.5180   12.9300 O.3       1 MOL        -0.5600 
      5 C5         19.7020  -29.4730   12.5330 C.3       1 MOL         0.4182 
      6 C6         19.7610  -29.9810   11.1120 C.2       1 MOL        -0.2882 
      7 S7         16.8630  -31.5970   12.2460 S.3       1 MOL        -0.3315 
      8 O8         20.6160  -29.8470   14.7620 O.3       1 MOL        -0.6800 
      9 O9         19.4260  -32.3290   14.8080 O.3       1 MOL        -0.6800 
     10 C10        20.6230  -29.5470   10.2150 C.2       1 MOL        -0.2882 
     11 C11        15.2570  -31.0390   12.7110 C.ar      1 MOL         0.1015 
     12 C12        20.6890  -30.1320    8.8380 C.3       1 MOL         0.4383 
     13 N13        21.4530  -29.2200    8.0190 N.am      1 MOL        -0.7301 
     14 C14        22.3190  -29.6040    7.0830 C.2       1 MOL         0.5438 
     15 C15        23.3070  -28.5950    6.5710 C.ar      1 MOL         0.0862 
     16 C16        23.3210  -27.2270    6.9200 C.ar      1 MOL         0.0825 
     17 C17        24.2820  -26.3830    6.3540 C.ar      1 MOL         0.0825 
     18 C18        25.2660  -26.9130    5.5160 C.ar      1 MOL        -0.1500 
     19 C19        25.2770  -28.2710    5.1810 C.ar      1 MOL         0.1330 
     20 C20        24.2790  -29.0900    5.6970 C.ar      1 MOL        -0.1500 
     21 N21        26.3310  -28.8610    4.3110 N.2       1 MOL         0.9070 
     22 O22        22.4080  -26.7140    7.8020 O.3       1 MOL        -0.5325 
     23 O23        24.2970  -25.0340    6.6010 O.3       1 MOL        -0.5325 
     24 O24        22.2540  -30.7360    6.6470 O.2       1 MOL        -0.5700 
     25 O25        26.9410  -28.1330    3.5520 O.2       1 MOL        -0.5200 
     26 O26        26.4650  -30.0750    4.3080 O.3       1 MOL        -0.5200 
     27 C27        14.1580  -31.7840   12.3200 C.ar      1 MOL        -0.1500 
     28 C28        12.8930  -31.3840   12.7120 C.ar      1 MOL         0.1600 
     29 N29        12.6890  -30.2950   13.4780 N.ar      1 MOL        -0.6200 
     30 C30        13.7570  -29.5590   13.8480 C.ar      1 MOL         0.1600 
     31 C31        15.0520  -29.8980   13.4830 C.ar      1 MOL        -0.1500 
     32 H1         21.3230  -30.8350   13.0660 H         1 MOL         0.0000 
     33 H2         19.4560  -32.2600   12.7390 H         1 MOL         0.0000 
     34 H3         17.4930  -30.7130   14.4090 H         1 MOL         0.0000 
     35 H4         20.1020  -28.4560   12.6190 H         1 MOL         0.0000 
     36 H5         19.0610  -30.7660   10.8420 H         1 MOL         0.1500 
     37 H6         19.7450  -29.4600   15.1080 H         1 MOL         0.4000 
     38 H7         19.0730  -31.7290   15.5560 H         1 MOL         0.4000 
     39 H8         21.3330  -28.7550   10.4600 H         1 MOL         0.1500 
     40 H9         19.6930  -30.2580    8.4120 H         1 MOL         0.0000 
     41 H10        21.1870  -31.1070    8.8760 H         1 MOL         0.0000 
     42 H11        21.5690  -28.2750    8.3740 H         1 MOL         0.3700 
     43 H12        26.0390  -26.2430    5.1480 H         1 MOL         0.1500 
     44 H13        24.2800  -30.1500    5.4450 H         1 MOL         0.1500 
     45 H14        22.3940  -25.6990    7.8660 H         1 MOL         0.4500 
     46 H15        23.4130  -24.5560    6.5810 H         1 MOL         0.4500 
     47 H16        14.2870  -32.6810   11.7320 H         1 MOL         0.1500 
     48 H17        12.0060  -31.9490   12.4290 H         1 MOL         0.1500 
     49 H18        13.5430  -28.6810   14.4520 H         1 MOL         0.1500 
     50 H19        15.8750  -29.2630   13.7970 H         1 MOL         0.1500 
@<TRIPOS>BOND
     1    1    2 1    
     2    1    5 1    
     3    1    8 1    
     4    2    3 1    
     5    2    9 1    
     6    3    4 1    
     7    3    7 1    
     8    4    5 1    
     9    5    6 1    
    10    6   10 2    
    11    7   11 1    
    12   10   12 1    
    13   11   27 ar   
    14   11   31 ar   
    15   12   13 1    
    16   13   14 am   
    17   14   15 1    
    18   14   24 2    
    19   15   16 ar   
    20   15   20 ar   
    21   16   17 ar   
    22   16   22 1    
    23   17   18 ar   
    24   17   23 1    
    25   18   19 ar   
    26   19   20 ar   
    27   19   21 1    
    28   21   25 2    
    29   21   26 2    
    30   27   28 ar   
    31   28   29 ar   
    32   29   30 ar   
    33   30   31 ar   
    34    1   32 1    
    35    2   33 1    
    36    3   34 1    
    37    5   35 1    
    38    6   36 1    
    39    8   37 1    
    40    9   38 1    
    41   10   39 1    
    42   12   40 1    
    43   12   41 1    
    44   13   42 1    
    45   18   43 1    
    46   20   44 1    
    47   22   45 1    
    48   23   46 1    
    49   27   47 1    
    50   28   48 1    
    51   30   49 1    
    52   31   50 1    
@<TRIPOS>SUBSTRUCTURE
     1 MOL         1 PERM              0 ****  ****    0 ROOT 
@<TRIPOS>NORMAL
@<TRIPOS>ALT_TYPE
MMFF94_ALT_TYPE_SET 
MMFF94 1 CR 2 CR 3 CR 5 CR 12 CR 11 CB 15 CB 16 CB 17 CB 18 CB 19 CB \
20 CB 27 CB 28 CB 30 CB 31 CB 14 C=ON 6 C=C 10 C=C 32 HC \
33 HC 34 HC 35 HC 36 HC 39 HC 40 HC 41 HC 43 HC 44 HC \
47 HC 48 HC 49 HC 50 HC 42 HNCO 45 HOCC 46 HOCC 37 HOR \
38 HOR 24 O=CN 25 O2N 26 O2N 22 OC=C 23 OC=C 4 OR 8 OR \
9 OR 29 NPYD 21 NO2 13 NC=O 7 S 
