#	Name:			2xys_ligand
#	Creating user name:	suminyi
#	Creation time:		Sun Sep 30 06:50:53 2018

#	Modifying user name:	suminyi
#	Modification time:	Sun Sep 30 06:50:53 2018

@<TRIPOS>MOLECULE
2xys_ligand
   50    56     1     1     0
SMALL
MMFF94_CHARGES


@<TRIPOS>ATOM
      1 CAV       -42.8920    7.3450  -16.6350 C.3       1 MOL         0.5030 
      2 CAU       -42.0620    7.0880  -17.9060 C.3       1 MOL         0.0000 
      3 CAT       -40.7140    6.4660  -17.4770 C.3       1 MOL         0.1382 
      4 CAN       -41.0630    5.0230  -17.0280 C.3       1 MOL         0.0000 
      5 CAK       -41.9750    4.9890  -15.7860 C.3       1 MOL         0.3691 
      6 NAH       -42.6530    3.6690  -15.7680 N.pl3     1 MOL        -0.8382 
      7 CAA       -43.9730    3.8500  -16.0810 C.ar      1 MOL         0.1000 
      8 CAF       -44.9310    2.8630  -16.2880 C.ar      1 MOL        -0.1500 
      9 CAE       -46.2230    3.2440  -16.6610 C.ar      1 MOL        -0.1500 
     10 CAD       -46.5460    4.5960  -16.8140 C.ar      1 MOL        -0.1500 
     11 CAC       -45.5820    5.5820  -16.5870 C.ar      1 MOL        -0.1500 
     12 CAB       -44.3000    5.1840  -16.2090 C.ar      1 MOL        -0.1435 
     13 CAG       -43.1330    6.0480  -15.8060 C.3       1 MOL         0.1435 
     14 CAW       -43.3370    6.6190  -14.3930 C.3       1 MOL         0.0000 
     15 CAX       -42.3640    7.7910  -14.3130 C.3       1 MOL         0.5030 
     16 NAY       -42.2440    8.3660  -15.7000 N.4       1 MOL        -0.9590 
     17 CAS       -40.7880    8.6170  -16.0390 C.3       1 MOL         0.6412 
     18 CAR       -40.0760    7.3140  -16.3730 C.2       1 MOL        -0.2764 
     19 CAQ       -38.9940    6.9410  -15.7060 C.2       1 MOL        -0.2882 
     20 CAP       -38.1960    5.6950  -15.9970 C.3       1 MOL         0.4182 
     21 OAO       -38.9960    4.5180  -15.7470 O.3       1 MOL        -0.5600 
     22 CAM       -39.8890    4.0520  -16.7910 C.3       1 MOL         0.2800 
     23 CAL       -40.3930    2.6570  -16.3140 C.3       1 MOL         0.0000 
     24 CAI       -41.9320    2.4760  -16.2370 C.3       1 MOL         0.6491 
     25 OAJ       -42.2220    1.3960  -15.3580 O.3       1 MOL        -0.6800 
     26 H1        -43.8630    7.7590  -16.9220 H         1 MOL         0.0000 
     27 H2        -41.8890    8.0270  -18.4270 H         1 MOL         0.0000 
     28 H3        -42.6100    6.4420  -18.5980 H         1 MOL         0.0000 
     29 H4        -40.0590    6.4380  -18.3510 H         1 MOL         0.0000 
     30 H5        -41.6210    4.5930  -17.8610 H         1 MOL         0.0000 
     31 H6        -41.3660    5.1260  -14.8860 H         1 MOL         0.0000 
     32 H7        -44.6800    1.8160  -16.1560 H         1 MOL         0.1500 
     33 H8        -46.9820    2.4880  -16.8390 H         1 MOL         0.1500 
     34 H9        -47.5570    4.8770  -17.1040 H         1 MOL         0.1500 
     35 H10       -45.8370    6.6340  -16.6920 H         1 MOL         0.1500 
     36 H11       -43.1840    5.8820  -13.6000 H         1 MOL         0.0000 
     37 H12       -44.3410    7.0200  -14.3110 H         1 MOL         0.0000 
     38 H13       -41.3750    7.4470  -13.9970 H         1 MOL         0.0000 
     39 H14       -42.7190    8.5710  -13.6330 H         1 MOL         0.0000 
     40 H15       -42.7660    9.2850  -15.7060 H         1 MOL         0.4500 
     41 H16       -40.3180    9.1270  -15.1940 H         1 MOL         0.0000 
     42 H17       -40.7540    9.2860  -16.9060 H         1 MOL         0.0000 
     43 H18       -38.6050    7.5670  -14.9050 H         1 MOL         0.1500 
     44 H19       -37.3370    5.6620  -15.3220 H         1 MOL         0.0000 
     45 H20       -37.8350    5.6970  -17.0270 H         1 MOL         0.0000 
     46 H21       -39.3190    3.9400  -17.7150 H         1 MOL         0.0000 
     47 H22       -39.9780    2.4470  -15.3290 H         1 MOL         0.0000 
     48 H23       -39.9920    1.8950  -16.9840 H         1 MOL         0.0000 
     49 H24       -42.3170    2.2040  -17.2300 H         1 MOL         0.0000 
     50 H25       -42.1660    0.5330  -15.8320 H         1 MOL         0.4000 
@<TRIPOS>BOND
     1    1    2 1    
     2    1   13 1    
     3    1   16 1    
     4    2    3 1    
     5    3    4 1    
     6    3   18 1    
     7    4    5 1    
     8    4   22 1    
     9    5    6 1    
    10    5   13 1    
    11    6    7 1    
    12    6   24 1    
    13    7    8 ar   
    14    7   12 ar   
    15    8    9 ar   
    16    9   10 ar   
    17   10   11 ar   
    18   11   12 ar   
    19   12   13 1    
    20   13   14 1    
    21   14   15 1    
    22   15   16 1    
    23   16   17 1    
    24   17   18 1    
    25   18   19 2    
    26   19   20 1    
    27   20   21 1    
    28   21   22 1    
    29   22   23 1    
    30   23   24 1    
    31   24   25 1    
    32    1   26 1    
    33    2   27 1    
    34    2   28 1    
    35    3   29 1    
    36    4   30 1    
    37    5   31 1    
    38    8   32 1    
    39    9   33 1    
    40   10   34 1    
    41   11   35 1    
    42   14   36 1    
    43   14   37 1    
    44   15   38 1    
    45   15   39 1    
    46   16   40 1    
    47   17   41 1    
    48   17   42 1    
    49   19   43 1    
    50   20   44 1    
    51   20   45 1    
    52   22   46 1    
    53   23   47 1    
    54   23   48 1    
    55   24   49 1    
    56   25   50 1    
@<TRIPOS>SUBSTRUCTURE
     1 MOL         1 PERM              0 ****  ****    0 ROOT 
@<TRIPOS>NORMAL
@<TRIPOS>ALT_TYPE
MMFF94_ALT_TYPE_SET 
MMFF94 1 CR 2 CR 3 CR 4 CR 5 CR 13 CR 14 CR 15 CR 17 CR 20 CR 22 CR \
23 CR 24 CR 7 CB 8 CB 9 CB 10 CB 11 CB 12 CB 18 C=C 19 C=C \
26 HC 27 HC 28 HC 29 HC 30 HC 31 HC 32 HC 33 HC 34 HC \
35 HC 36 HC 37 HC 38 HC 39 HC 41 HC 42 HC 43 HC 44 HC \
45 HC 46 HC 47 HC 48 HC 49 HC 40 HNR+ 50 HOR 21 OR 25 OR \
16 NR+ 6 NC=C 
