#	Name:			3arv_ligand
#	Creating user name:	suminyi
#	Creation time:		Sun Sep 30 06:50:57 2018

#	Modifying user name:	suminyi
#	Modification time:	Sun Sep 30 06:50:57 2018

@<TRIPOS>MOLECULE
3arv_ligand
   40    45     1     1     0
SMALL
MMFF94_CHARGES


@<TRIPOS>ATOM
      1 N          18.3380   -8.6830   23.7920 N.pl3     1 MOL        -0.8382 
      2 C1         23.2020  -11.9070   20.8330 C.3       1 MOL         0.5600 
      3 O1         22.5790  -11.3250   22.0170 O.3       1 MOL        -0.3625 
      4 C2         21.1580  -11.1230   20.2920 C.ar      1 MOL         0.0825 
      5 O2         22.2680  -11.6940   19.7370 O.3       1 MOL        -0.3625 
      6 C3         21.3400  -10.9020   21.6260 C.ar      1 MOL         0.0825 
      7 O3         12.6010   -7.6710   25.2600 O.3       1 MOL        -0.3625 
      8 C4         19.9500  -10.8350   19.6820 C.ar      1 MOL        -0.1500 
      9 O4         14.7710   -7.5530   26.0880 O.3       1 MOL        -0.3625 
     10 C5         18.9380  -10.2570   20.4570 C.ar      1 MOL         0.0000 
     11 C6         19.1310   -9.9330   21.8190 C.ar      1 MOL         0.0000 
     12 C7         20.3440  -10.3440   22.4140 C.ar      1 MOL        -0.1500 
     13 C8         17.7140  -10.0210   19.8540 C.ar      1 MOL        -0.1500 
     14 C9         16.6570   -9.5300   20.6000 C.ar      1 MOL        -0.1500 
     15 C10        18.1020   -9.2620   22.5390 C.ar      1 MOL         0.1000 
     16 C12        17.2360   -8.2110   24.6450 C.3       1 MOL         0.5126 
     17 C13        15.8780   -8.3140   24.0150 C.ar      1 MOL        -0.1435 
     18 C14        15.6880   -8.7410   22.6930 C.ar      1 MOL         0.0000 
     19 C15        16.8130   -9.1640   21.9470 C.ar      1 MOL         0.0000 
     20 C18        14.3570   -8.7970   22.2020 C.ar      1 MOL        -0.1500 
     21 C19        13.2620   -8.4440   23.0000 C.ar      1 MOL        -0.1500 
     22 C20        13.5040   -8.0290   24.2980 C.ar      1 MOL         0.0825 
     23 C21        14.7780   -7.9640   24.7840 C.ar      1 MOL         0.0825 
     24 C23        13.3870   -7.2370   26.4070 C.3       1 MOL         0.5600 
     25 C25        19.6220   -8.0740   24.1780 C.3       1 MOL         0.3691 
     26 H1         23.3520  -12.9860   20.9850 H         1 MOL         0.0000 
     27 H2         24.1560  -11.4020   20.6200 H         1 MOL         0.0000 
     28 H3         19.7990  -11.0550   18.6300 H         1 MOL         0.1500 
     29 H4         20.5110  -10.2850   23.4780 H         1 MOL         0.1500 
     30 H5         17.5600  -10.2580   18.8020 H         1 MOL         0.1500 
     31 H6         15.7140   -9.4310   20.0760 H         1 MOL         0.1500 
     32 H7         17.3870   -7.1590   24.9070 H         1 MOL         0.0000 
     33 H8         17.2480   -8.7710   25.5790 H         1 MOL         0.0000 
     34 H9         14.1120   -9.1650   21.2100 H         1 MOL         0.1500 
     35 H10        12.2440   -8.5240   22.6250 H         1 MOL         0.1500 
     36 H11        13.0710   -7.7750   27.3130 H         1 MOL         0.0000 
     37 H12        13.2810   -6.1480   26.5360 H         1 MOL         0.0000 
     38 H13        20.2620   -7.9270   23.3060 H         1 MOL         0.0000 
     39 H14        20.1290   -8.7230   24.8980 H         1 MOL         0.0000 
     40 H15        19.4740   -7.1010   24.6530 H         1 MOL         0.0000 
@<TRIPOS>BOND
     1    1   15 1    
     2   16    1 1    
     3    1   25 1    
     4    3    2 1    
     5    5    2 1    
     6    6    3 1    
     7    4    5 1    
     8    6    4 ar   
     9    8    4 ar   
    10   12    6 ar   
    11    7   22 1    
    12   24    7 1    
    13   10    8 ar   
    14   23    9 1    
    15    9   24 1    
    16   11   10 ar   
    17   10   13 ar   
    18   11   12 ar   
    19   15   11 ar   
    20   14   13 ar   
    21   19   14 ar   
    22   15   19 ar   
    23   17   16 1    
    24   17   18 ar   
    25   17   23 ar   
    26   18   19 1    
    27   18   20 ar   
    28   20   21 ar   
    29   21   22 ar   
    30   22   23 ar   
    31    2   26 1    
    32    2   27 1    
    33    8   28 1    
    34   12   29 1    
    35   13   30 1    
    36   14   31 1    
    37   16   32 1    
    38   16   33 1    
    39   20   34 1    
    40   21   35 1    
    41   24   36 1    
    42   24   37 1    
    43   25   38 1    
    44   25   39 1    
    45   25   40 1    
@<TRIPOS>SUBSTRUCTURE
     1 MOL         1 PERM              0 ****  ****    0 ROOT 
@<TRIPOS>NORMAL
@<TRIPOS>ALT_TYPE
MMFF94_ALT_TYPE_SET 
MMFF94 2 CR 16 CR 24 CR 25 CR 4 CB 6 CB 8 CB 10 CB 11 CB 12 CB 13 CB \
14 CB 15 CB 17 CB 18 CB 19 CB 20 CB 21 CB 22 CB 23 CB \
26 HC 27 HC 28 HC 29 HC 30 HC 31 HC 32 HC 33 HC 34 HC \
35 HC 36 HC 37 HC 38 HC 39 HC 40 HC 3 OC=C 5 OC=C 7 OC=C \
9 OC=C 1 NC=C
