#	Name:			4ih7_ligand
#	Creating user name:	suminyi
#	Creation time:		Sun Sep 30 06:51:02 2018

#	Modifying user name:	suminyi
#	Modification time:	Sun Sep 30 06:51:02 2018

@<TRIPOS>MOLECULE
4ih7_ligand
   34    35     1     1     0
SMALL
MMFF94_CHARGES


@<TRIPOS>ATOM
      1 O         -10.7680    6.4090    9.3600 O.2       1 MOL        -0.5700 
      2 C13       -11.1240    7.0010   10.3580 C.2       1 MOL         0.7200 
      3 N         -12.0780    6.5020   11.2430 N.2       1 MOL        -0.6610 
      4 C12       -12.8300    7.2650   11.9730 C.2       1 MOL         0.3756 
      5 C11       -12.6550    8.7130   11.9340 C.2       1 MOL        -0.1356 
      6 C10       -11.5820    9.2550   11.3440 C.2       1 MOL        -0.2882 
      7 C9        -10.5230    8.3150   10.8310 C.3       1 MOL         0.3427 
      8 C8         -9.4610    8.9620    9.9630 C.ar      1 MOL        -0.1435 
      9 C7         -9.4890    8.9830    8.5710 C.ar      1 MOL        -0.1500 
     10 C6         -8.4190    9.5360    7.8720 C.ar      1 MOL        -0.1500 
     11 C5         -7.3440   10.0940    8.5640 C.ar      1 MOL        -0.1500 
     12 C14        -8.3960    9.5430   10.6390 C.ar      1 MOL        -0.1500 
     13 C4         -7.3400   10.1490    9.9640 C.ar      1 MOL        -0.1435 
     14 C1         -6.2050   10.8010   10.7700 C.3       1 MOL         0.1435 
     15 C3         -6.7260   11.3300   12.1410 C.3       1 MOL         0.0000 
     16 C2         -5.5980   12.0170   10.0260 C.3       1 MOL         0.0000 
     17 C          -5.1210    9.7220   11.0050 C.3       1 MOL         0.0000 
     18 H1        -13.6060    6.8420   12.6190 H         1 MOL         0.0600 
     19 H2        -13.4270    9.3090   12.4190 H         1 MOL         0.1500 
     20 H3        -11.3960   10.3280   11.3000 H         1 MOL         0.1500 
     21 H4         -9.9780    8.0210   11.7160 H         1 MOL         0.0000 
     22 H5        -10.3290    8.5540    8.0280 H         1 MOL         0.1500 
     23 H6         -8.4260    9.5390    6.7820 H         1 MOL         0.1500 
     24 H7         -6.5190   10.5000    7.9920 H         1 MOL         0.1500 
     25 H8         -8.4100    9.5220   11.7250 H         1 MOL         0.1500 
     26 H9         -6.1030   12.1180   12.5580 H         1 MOL         0.0000 
     27 H10        -6.7890   10.5300   12.8830 H         1 MOL         0.0000 
     28 H11        -7.7200   11.7610   12.0270 H         1 MOL         0.0000 
     29 H12        -5.1210   11.7210    9.0920 H         1 MOL         0.0000 
     30 H13        -4.8410   12.5170   10.6320 H         1 MOL         0.0000 
     31 H14        -6.3770   12.7470    9.8000 H         1 MOL         0.0000 
     32 H15        -5.5500    8.8530   11.5110 H         1 MOL         0.0000 
     33 H16        -4.3010   10.0860   11.6200 H         1 MOL         0.0000 
     34 H17        -4.7060    9.3860   10.0530 H         1 MOL         0.0000 
@<TRIPOS>BOND
     1    1    2 2    
     2    2    3 1    
     3    2    7 1    
     4    3    4 2    
     5    4    5 1    
     6    5    6 2    
     7    6    7 1    
     8    7    8 1    
     9    8    9 ar   
    10    8   12 ar   
    11    9   10 ar   
    12   10   11 ar   
    13   11   13 ar   
    14   12   13 ar   
    15   13   14 1    
    16   14   15 1    
    17   14   16 1    
    18   14   17 1    
    19    4   18 1    
    20    5   19 1    
    21    6   20 1    
    22    7   21 1    
    23    9   22 1    
    24   10   23 1    
    25   11   24 1    
    26   12   25 1    
    27   15   26 1    
    28   15   27 1    
    29   15   28 1    
    30   16   29 1    
    31   16   30 1    
    32   16   31 1    
    33   17   32 1    
    34   17   33 1    
    35   17   34 1    
@<TRIPOS>SUBSTRUCTURE
     1 MOL         1 PERM              0 ****  ****    0 ROOT 
@<TRIPOS>NORMAL
@<TRIPOS>ALT_TYPE
MMFF94_ALT_TYPE_SET 
MMFF94 7 CR 14 CR 15 CR 16 CR 17 CR 8 CB 9 CB 10 CB 11 CB 12 CB 13 CB \
2 C=ON 4 C=N 5 C=C 6 C=C 18 HC 19 HC 20 HC 21 HC 22 HC \
23 HC 24 HC 25 HC 26 HC 27 HC 28 HC 29 HC 30 HC 31 HC \
32 HC 33 HC 34 HC 1 O=CN 3 N=C 
