#	Name:			3zdg_ligand
#	Creating user name:	suminyi
#	Creation time:		Sun Sep 30 06:51:10 2018

#	Modifying user name:	suminyi
#	Modification time:	Sun Sep 30 06:51:10 2018

@<TRIPOS>MOLECULE
3zdg_ligand
   34    33     1     1     0
SMALL
MMFF94_CHARGES


@<TRIPOS>ATOM
      1 N1       -100.4900   36.5270   27.2840 N.4       1 MOL        -0.9590 
      2 C2        -99.9650   38.7460   25.2830 C.3       1 MOL         0.2800 
      3 O3       -101.3340   38.8220   25.7120 O.3       1 MOL        -0.4300 
      4 C4       -101.1710   37.1660   28.4770 C.3       1 MOL         0.5030 
      5 N5       -103.4920   39.1560   25.2700 N.am      1 MOL        -0.6602 
      6 O6       -101.9780   39.5000   23.6360 O.2       1 MOL        -0.5700 
      7 C7        -99.0990   37.0780   27.0260 C.3       1 MOL         0.5030 
      8 C8        -99.0820   38.5390   26.5230 C.3       1 MOL         0.0000 
      9 C9       -102.2360   39.1750   24.7770 C.2       1 MOL         0.7800 
     10 C10      -100.4600   35.0160   27.4510 C.3       1 MOL         0.5030 
     11 C11       -98.1570   36.9890   28.2430 C.3       1 MOL         0.0000 
     12 C12      -104.6020   39.6100   24.4410 C.3       1 MOL         0.3001 
     13 C13      -103.8790   38.6620   26.6040 C.3       1 MOL         0.3001 
     14 H1       -101.0650   36.7210   26.4090 H         1 MOL         0.4500 
     15 H2        -99.6880   39.6790   24.7820 H         1 MOL         0.0000 
     16 H3        -99.8700   37.9130   24.5880 H         1 MOL         0.0000 
     17 H4       -102.1780   36.7510   28.5640 H         1 MOL         0.0000 
     18 H5       -101.2220   38.2470   28.3180 H         1 MOL         0.0000 
     19 H6       -100.5970   36.9420   29.3790 H         1 MOL         0.0000 
     20 H7        -98.6850   36.4500   26.2280 H         1 MOL         0.0000 
     21 H8        -99.3990   39.2280   27.3090 H         1 MOL         0.0000 
     22 H9        -98.0580   38.8090   26.2570 H         1 MOL         0.0000 
     23 H10      -101.4840   34.6330   27.4430 H         1 MOL         0.0000 
     24 H11       -99.9750   34.7680   28.3970 H         1 MOL         0.0000 
     25 H12       -99.9070   34.5760   26.6160 H         1 MOL         0.0000 
     26 H13       -97.1270   37.1850   27.9340 H         1 MOL         0.0000 
     27 H14       -98.1920   35.9960   28.6890 H         1 MOL         0.0000 
     28 H15       -98.4260   37.7140   29.0140 H         1 MOL         0.0000 
     29 H16      -105.5370   39.5050   24.9960 H         1 MOL         0.0000 
     30 H17      -104.6500   39.0140   23.5260 H         1 MOL         0.0000 
     31 H18      -104.4530   40.6600   24.1690 H         1 MOL         0.0000 
     32 H19      -103.0550   38.7340   27.3140 H         1 MOL         0.0000 
     33 H20      -104.1970   37.6180   26.5230 H         1 MOL         0.0000 
     34 H21      -104.7070   39.2550   27.0010 H         1 MOL         0.0000 
@<TRIPOS>BOND
     1    1    4 1    
     2    7    1 1    
     3    1   10 1    
     4    2    3 1    
     5    8    2 1    
     6    3    9 1    
     7    9    5 am   
     8    5   12 1    
     9    5   13 1    
    10    9    6 2    
    11    7    8 1    
    12    7   11 1    
    13    1   14 1    
    14    2   15 1    
    15    2   16 1    
    16    4   17 1    
    17    4   18 1    
    18    4   19 1    
    19    7   20 1    
    20    8   21 1    
    21    8   22 1    
    22   10   23 1    
    23   10   24 1    
    24   10   25 1    
    25   11   26 1    
    26   11   27 1    
    27   11   28 1    
    28   12   29 1    
    29   12   30 1    
    30   12   31 1    
    31   13   32 1    
    32   13   33 1    
    33   13   34 1    
@<TRIPOS>SUBSTRUCTURE
     1 MOL         1 PERM              0 ****  ****    0 ROOT 
@<TRIPOS>NORMAL
@<TRIPOS>ALT_TYPE
MMFF94_ALT_TYPE_SET 
MMFF94 2 CR 4 CR 7 CR 8 CR 10 CR 11 CR 12 CR 13 CR 9 COO 15 HC 16 HC \
17 HC 18 HC 19 HC 20 HC 21 HC 22 HC 23 HC 24 HC 25 HC \
26 HC 27 HC 28 HC 29 HC 30 HC 31 HC 32 HC 33 HC 34 HC \
14 HNR+ 6 O=CN 3 OC=O 1 NR+ 5 NC=O 
