#	Name:			3ivg_ligand
#	Creating user name:	suminyi
#	Creation time:		Sun Sep 30 06:51:00 2018

#	Modifying user name:	suminyi
#	Modification time:	Sun Sep 30 06:51:00 2018

@<TRIPOS>MOLECULE
3ivg_ligand
   46    49     1     1     0
SMALL
MMFF94_CHARGES


@<TRIPOS>ATOM
      1 C           1.9080  -13.6170   38.7280 C.2       1 MOL         0.9060 
      2 N           0.9320  -11.2420   38.7160 N.pl3     1 MOL         0.0476 
      3 O           2.8900  -14.2950   38.9420 O.co2     1 MOL        -0.9000 
      4 CA          1.9840  -12.1720   39.1720 C.3       1 MOL         0.1496 
      5 CAA        -2.8080   -6.4490   40.7190 C.3       1 MOL         0.2800 
      6 OAC        -0.4700   -9.3290   34.1350 O.2       1 MOL        -0.6500 
      7 OAD         0.0030  -11.8860   33.8470 O.2       1 MOL        -0.6500 
      8 CAF         2.7080   -9.9650   28.1500 C.ar      1 MOL        -0.1500 
      9 CAG         3.5650   -9.0240   28.7260 C.ar      1 MOL        -0.1500 
     10 CAH        -0.6510   -9.3750   41.4910 C.ar      1 MOL        -0.1500 
     11 CAI         1.8280  -10.6870   28.9470 C.ar      1 MOL        -0.1500 
     12 CAJ         3.5210   -8.7420   30.1020 C.ar      1 MOL        -0.1500 
     13 CAK         0.1620  -10.3340   40.8860 C.ar      1 MOL        -0.1500 
     14 CAL        -1.3770   -8.5980   39.3120 C.ar      1 MOL        -0.1500 
     15 CAM        -0.2410   -9.8110   37.3850 C.2       1 MOL        -0.1500 
     16 CAN         1.0590  -10.9880   31.3050 C.2       1 MOL        -0.1500 
     17 CAO         1.5740  -11.2410   36.2270 C.3       1 MOL         0.5357 
     18 NAQ         1.5530  -10.2840   35.0970 N.am      1 MOL        -0.9137 
     19 OAR        -2.1630   -7.5580   41.3840 O.3       1 MOL        -0.3625 
     20 OAS         2.3540   -9.3010   32.2470 O.3       1 MOL        -0.2800 
     21 CAU        -1.4120   -8.5010   40.7120 C.ar      1 MOL         0.0825 
     22 CAV         0.7280  -10.8100   37.4030 C.2       1 MOL        -0.3316 
     23 CAW         1.3560  -10.2730   32.4280 C.2       1 MOL         0.0780 
     24 CAX         1.8330  -10.4030   30.3040 C.ar      1 MOL         0.0000 
     25 CAY        -0.5620   -9.5750   38.7450 C.ar      1 MOL         0.0000 
     26 CAZ         2.6100   -9.4400   30.8850 C.ar      1 MOL         0.1400 
     27 CBA         0.1780  -10.4320   39.5020 C.ar      1 MOL        -0.1516 
     28 SBC         0.3990  -10.4730   33.9310 S.o2      1 MOL         1.5000 
     29 OXT         0.8530  -14.1060   38.3980 O.co2     1 MOL        -0.9000 
     30 H1          2.9510  -11.8000   38.8240 H         1 MOL         0.0000 
     31 H2          2.0000  -12.2190   40.2600 H         1 MOL         0.0000 
     32 H3         -3.3910   -5.8940   41.4560 H         1 MOL         0.0000 
     33 H4         -3.4800   -6.8210   39.9430 H         1 MOL         0.0000 
     34 H5         -2.0500   -5.7950   40.2800 H         1 MOL         0.0000 
     35 H6          2.7530  -10.1700   27.0840 H         1 MOL         0.1500 
     36 H7          4.2770   -8.5290   28.0800 H         1 MOL         0.1500 
     37 H8         -0.6840   -9.3000   42.5730 H         1 MOL         0.1500 
     38 H9          1.1630  -11.4390   28.5210 H         1 MOL         0.1500 
     39 H10         4.1860   -8.0120   30.5540 H         1 MOL         0.1500 
     40 H11         0.7920  -10.9600   41.4820 H         1 MOL         0.1500 
     41 H12        -1.9490   -7.9290   38.6770 H         1 MOL         0.1500 
     42 H13        -0.5840   -9.2420   36.5330 H         1 MOL         0.1500 
     43 H14         0.3540  -11.7750   31.2160 H         1 MOL         0.1500 
     44 H15         2.6100  -11.2920   36.5790 H         1 MOL         0.0000 
     45 H16         1.3080  -12.2550   35.9080 H         1 MOL         0.0000 
     46 H17         2.4240  -10.2860   34.5900 H         1 MOL         0.4200 
@<TRIPOS>BOND
     1    1    3 ar   
     2    4    1 1    
     3    1   29 ar   
     4    2    4 1    
     5   22    2 1    
     6    2   27 1    
     7   19    5 1    
     8   28    6 2    
     9   28    7 2    
    10    9    8 ar   
    11   11    8 ar   
    12   12    9 ar   
    13   13   10 ar   
    14   21   10 ar   
    15   24   11 ar   
    16   26   12 ar   
    17   27   13 ar   
    18   14   21 ar   
    19   25   14 ar   
    20   22   15 2    
    21   15   25 1    
    22   23   16 2    
    23   16   24 1    
    24   18   17 1    
    25   17   22 1    
    26   28   18 am   
    27   21   19 1    
    28   23   20 1    
    29   20   26 1    
    30   23   28 1    
    31   24   26 ar   
    32   25   27 ar   
    33    4   30 1    
    34    4   31 1    
    35    5   32 1    
    36    5   33 1    
    37    5   34 1    
    38    8   35 1    
    39    9   36 1    
    40   10   37 1    
    41   11   38 1    
    42   12   39 1    
    43   13   40 1    
    44   14   41 1    
    45   15   42 1    
    46   16   43 1    
    47   17   44 1    
    48   17   45 1    
    49   18   46 1    
@<TRIPOS>SUBSTRUCTURE
     1 MOL         1 PERM              0 ****  ****    0 ROOT 
@<TRIPOS>NORMAL
@<TRIPOS>ALT_TYPE
MMFF94_ALT_TYPE_SET 
MMFF94 4 CR 5 CR 17 CR 22 C5A 23 C5A 26 C5A 27 C5A 15 C5B 16 C5B 25 C5B \
24 C5B 8 CB 9 CB 10 CB 11 CB 12 CB 13 CB 14 CB 21 CB \
1 CO2M 30 HC 31 HC 32 HC 33 HC 34 HC 35 HC 36 HC 37 HC \
38 HC 39 HC 40 HC 41 HC 42 HC 43 HC 44 HC 45 HC 46 HNSO \
20 OFUR 3 O2CM 29 O2CM 6 O2S 7 O2S 19 OC=C 2 NPYL 18 NSO2 \
28 SO2N 
