#	Name:			4w9i_ligand
#	Creating user name:	suminyi
#	Creation time:		Sun Sep 30 06:51:10 2018

#	Modifying user name:	suminyi
#	Modification time:	Sun Sep 30 06:51:10 2018

@<TRIPOS>MOLECULE
4w9i_ligand
   61    64     1     1     0
SMALL
MMFF94_CHARGES


@<TRIPOS>ATOM
      1 CAA        10.7590   54.1920   95.9400 C.3       1 MOL         0.0610 
      2 CAU        11.8560   54.3260   94.9170 C.2       1 MOL         0.5690 
      3 OAC        12.3240   55.4140   94.6470 O.2       1 MOL        -0.5700 
      4 NBF        12.3110   53.1980   94.3210 N.am      1 MOL        -0.6602 
      5 CAP        11.8680   51.8160   94.5730 C.3       1 MOL         0.3001 
      6 CBC        12.5020   50.9340   93.4780 C.3       1 MOL         0.2800 
      7 OAG        13.0490   49.7330   94.0240 O.3       1 MOL        -0.6800 
      8 CAO        13.6270   51.7900   92.8940 C.3       1 MOL         0.0000 
      9 CBE        13.1570   53.2390   93.1170 C.3       1 MOL         0.3611 
     10 CAW        12.4040   53.7280   91.8780 C.2       1 MOL         0.5690 
     11 OAE        11.1880   53.6940   91.7930 O.2       1 MOL        -0.5700 
     12 N          13.1520   54.1300   90.8290 N.am      1 MOL        -0.6602 
     13 CD2        14.5540   54.5650   90.8760 C.3       1 MOL         0.3001 
     14 CG         14.7470   55.3940   89.6070 C.3       1 MOL         0.2800 
     15 OD1        14.2330   56.6880   89.8880 O.3       1 MOL        -0.6800 
     16 CB         13.8040   54.7360   88.6010 C.3       1 MOL         0.0000 
     17 CA         12.6090   54.2870   89.4660 C.3       1 MOL         0.3611 
     18 C          11.9360   53.0580   88.8630 C.2       1 MOL         0.5690 
     19 O          12.0930   51.9170   89.2470 O.2       1 MOL        -0.5700 
     20 NAS        11.2140   53.3230   87.7630 N.am      1 MOL        -0.7301 
     21 CAM        10.6720   52.3130   86.8560 C.3       1 MOL         0.4436 
     22 CAX        11.5750   52.0190   85.6600 C.ar      1 MOL        -0.1435 
     23 CAI        11.3900   50.8250   84.9700 C.ar      1 MOL        -0.1500 
     24 CAK        12.1500   50.5290   83.8420 C.ar      1 MOL        -0.1500 
     25 CAH        12.5830   52.8910   85.2340 C.ar      1 MOL        -0.1500 
     26 CAJ        13.3610   52.5790   84.1170 C.ar      1 MOL        -0.1500 
     27 CAZ        13.1170   51.4220   83.3650 C.ar      1 MOL         0.0530 
     28 CBA        13.9010   51.1640   82.1630 C.2       1 MOL        -0.0130 
     29 SAT        15.4900   51.7940   81.8870 S.3       1 MOL        -0.0800 
     30 CAL        15.4910   50.9690   80.3600 C.2       1 MOL         0.2281 
     31 NAR        14.3300   50.3900   80.0090 N.2       1 MOL        -0.5653 
     32 CAY        13.4270   50.4890   81.0510 C.2       1 MOL         0.0462 
     33 CAB        12.0260   49.9890   80.8410 C.3       1 MOL         0.1810 
     34 H          10.9200   53.3270   96.5830 H         1 MOL         0.0000 
     35 H1          9.8010   54.0870   95.4280 H         1 MOL         0.0000 
     36 H2         10.7310   55.0860   96.5650 H         1 MOL         0.0000 
     37 H3         10.7780   51.7470   94.5130 H         1 MOL         0.0000 
     38 H4         12.2100   51.4950   95.5610 H         1 MOL         0.0000 
     39 H5         11.7560   50.7200   92.7030 H         1 MOL         0.0000 
     40 H6         13.8840   49.9510   94.4780 H         1 MOL         0.4000 
     41 H7         13.7920   51.5600   91.8380 H         1 MOL         0.0000 
     42 H8         14.5560   51.6210   93.4380 H         1 MOL         0.0000 
     43 H9         14.0070   53.9010   93.2880 H         1 MOL         0.0000 
     44 H10        15.2210   53.7010   90.8720 H         1 MOL         0.0000 
     45 H11        14.7490   55.1890   91.7530 H         1 MOL         0.0000 
     46 H12        15.7910   55.4280   89.2820 H         1 MOL         0.0000 
     47 H13        14.5600   57.3680   89.2450 H         1 MOL         0.4000 
     48 H14        14.2970   53.8670   88.1590 H         1 MOL         0.0000 
     49 H15        13.4970   55.4120   87.8020 H         1 MOL         0.0000 
     50 H16        11.8580   55.0810   89.4910 H         1 MOL         0.0000 
     51 H17        11.1050   54.2980   87.5150 H         1 MOL         0.3700 
     52 H18         9.7020   52.6690   86.4960 H         1 MOL         0.0000 
     53 H19        10.4910   51.3910   87.4200 H         1 MOL         0.0000 
     54 H20        10.6460   50.1120   85.3200 H         1 MOL         0.1500 
     55 H21        11.9980   49.5640   83.3740 H         1 MOL         0.1500 
     56 H22        12.7700   53.8180   85.7720 H         1 MOL         0.1500 
     57 H23        14.1370   53.2790   83.8120 H         1 MOL         0.1500 
     58 H24        16.3660   50.9950   79.7290 H         1 MOL         0.1500 
     59 H25        11.8010   49.9240   79.7750 H         1 MOL         0.0000 
     60 H26        11.2880   50.6600   81.2840 H         1 MOL         0.0000 
     61 H27        11.9010   48.9870   81.2560 H         1 MOL         0.0000 
@<TRIPOS>BOND
     1    1    2 1    
     2    2    3 2    
     3    2    4 am   
     4    4    5 1    
     5    4    9 1    
     6    5    6 1    
     7    6    7 1    
     8    6    8 1    
     9    8    9 1    
    10    9   10 1    
    11   10   11 2    
    12   10   12 am   
    13   12   13 1    
    14   12   17 1    
    15   13   14 1    
    16   14   15 1    
    17   14   16 1    
    18   16   17 1    
    19   17   18 1    
    20   18   19 2    
    21   18   20 am   
    22   20   21 1    
    23   21   22 1    
    24   22   23 ar   
    25   22   25 ar   
    26   23   24 ar   
    27   24   27 ar   
    28   25   26 ar   
    29   26   27 ar   
    30   27   28 1    
    31   28   29 1    
    32   28   32 2    
    33   29   30 1    
    34   30   31 2    
    35   31   32 1    
    36   32   33 1    
    37    1   34 1    
    38    1   35 1    
    39    1   36 1    
    40    5   37 1    
    41    5   38 1    
    42    6   39 1    
    43    7   40 1    
    44    8   41 1    
    45    8   42 1    
    46    9   43 1    
    47   13   44 1    
    48   13   45 1    
    49   14   46 1    
    50   15   47 1    
    51   16   48 1    
    52   16   49 1    
    53   17   50 1    
    54   20   51 1    
    55   21   52 1    
    56   21   53 1    
    57   23   54 1    
    58   24   55 1    
    59   25   56 1    
    60   26   57 1    
    61   30   58 1    
    62   33   59 1    
    63   33   60 1    
    64   33   61 1    
@<TRIPOS>SUBSTRUCTURE
     1 MOL         1 PERM              0 ****  ****    0 ROOT 
@<TRIPOS>NORMAL
@<TRIPOS>ALT_TYPE
MMFF94_ALT_TYPE_SET 
MMFF94 1 CR 5 CR 6 CR 8 CR 9 CR 13 CR 14 CR 16 CR 17 CR 21 CR 33 CR \
28 C5A 30 C5A 32 C5B 22 CB 23 CB 24 CB 25 CB 26 CB 27 CB \
2 C=ON 10 C=ON 18 C=ON 34 HC 35 HC 36 HC 37 HC 38 HC \
39 HC 41 HC 42 HC 43 HC 44 HC 45 HC 46 HC 48 HC 49 HC \
50 HC 52 HC 53 HC 54 HC 55 HC 56 HC 57 HC 58 HC 59 HC \
60 HC 61 HC 51 HNCO 40 HOR 47 HOR 3 O=CN 11 O=CN 19 O=CN \
7 OR 15 OR 31 N5B 4 NC=O 12 NC=O 20 NC=O 29 STHI 
