#	Name:			4ivb_ligand
#	Creating user name:	suminyi
#	Creation time:		Sun Sep 30 06:51:13 2018

#	Modifying user name:	suminyi
#	Modification time:	Sun Sep 30 06:51:13 2018

@<TRIPOS>MOLECULE
4ivb_ligand
   42    45     1     1     0
SMALL
MMFF94_CHARGES


@<TRIPOS>ATOM
      1 C1         11.0180   57.1460   -1.7250 C.3       1 MOL         0.0000 
      2 C2          9.9880   56.6710   -0.6840 C.3       1 MOL         0.4600 
      3 O4         10.6860   56.4840    0.5590 O.3       1 MOL        -0.6800 
      4 C5          8.8030   57.6210   -0.5300 C.2       1 MOL         0.0065 
      5 N6          7.6070   57.3120    0.1340 N.pl3     1 MOL         0.0476 
      6 C7          6.8940   58.4650    0.0960 C.ar      1 MOL        -0.1516 
      7 C8          7.6440   59.3900   -0.5710 C.ar      1 MOL         0.2272 
      8 N9          8.8080   58.8970   -1.0020 N.2       1 MOL        -0.5653 
      9 C10         7.1880   60.7020   -0.7200 C.ar      1 MOL         0.1600 
     10 N11         5.9880   61.1200   -0.2340 N.ar      1 MOL        -0.5670 
     11 C12         5.2670   60.1970    0.4360 C.ar      1 MOL         0.1054 
     12 C13         5.6550   58.8820    0.6070 C.ar      1 MOL         0.0000 
     13 C14         4.6270   58.2180    1.3430 C.2       1 MOL        -0.1500 
     14 C15         3.6650   59.1720    1.6000 C.2       1 MOL        -0.3016 
     15 N16         4.0760   60.3720    1.0320 N.pl3     1 MOL         0.0332 
     16 C18         7.2940   55.9990    0.7260 C.3       1 MOL         0.2556 
     17 C20         7.1720   55.9950    2.2710 C.3       1 MOL         0.0000 
     18 C21         6.8930   54.5810    2.8300 C.3       1 MOL         0.0000 
     19 C22         5.7050   53.8820    2.1240 C.3       1 MOL         0.2000 
     20 C24         5.9260   53.8590    0.5930 C.3       1 MOL         0.0000 
     21 C25         6.1240   55.2790    0.0230 C.3       1 MOL         0.0000 
     22 C26         5.5320   52.5010    2.6200 C.1       1 MOL         0.3571 
     23 N27         5.4160   51.4210    2.9460 N.1       1 MOL        -0.5571 
     24 H1         10.5400   57.2750   -2.6980 H         1 MOL         0.0000 
     25 H2         11.8110   56.4020   -1.8300 H         1 MOL         0.0000 
     26 H3         11.4660   58.0930   -1.4200 H         1 MOL         0.0000 
     27 H4          9.6240   55.6970   -1.0180 H         1 MOL         0.0000 
     28 H5         11.6910   56.4420    0.4420 H         1 MOL         0.4000 
     29 H6          7.7770   61.4430   -1.2500 H         1 MOL         0.1500 
     30 H7          4.5770   57.1920    1.6840 H         1 MOL         0.1500 
     31 H8          2.7380   59.0940    2.1590 H         1 MOL         0.1500 
     32 H9          3.5900   61.2670    1.0570 H         1 MOL         0.2700 
     33 H10         8.1590   55.3620    0.5320 H         1 MOL         0.0000 
     34 H11         6.3990   56.6800    2.6120 H         1 MOL         0.0000 
     35 H12         8.1130   56.3530    2.6960 H         1 MOL         0.0000 
     36 H13         6.6970   54.6500    3.9030 H         1 MOL         0.0000 
     37 H14         7.7950   53.9730    2.7130 H         1 MOL         0.0000 
     38 H15         4.7850   54.4300    2.3460 H         1 MOL         0.0000 
     39 H16         5.0810   53.3760    0.0980 H         1 MOL         0.0000 
     40 H17         6.8110   53.2590    0.3670 H         1 MOL         0.0000 
     41 H18         6.3390   55.2070   -1.0450 H         1 MOL         0.0000 
     42 H19         5.2020   55.8470    0.1220 H         1 MOL         0.0000 
@<TRIPOS>BOND
     1    1    2 1    
     2    2    3 1    
     3    2    4 1    
     4    4    5 1    
     5    4    8 2    
     6    5    6 1    
     7    5   16 1    
     8    6    7 ar   
     9    6   12 ar   
    10    7    8 1    
    11    7    9 ar   
    12    9   10 ar   
    13   10   11 ar   
    14   11   12 ar   
    15   11   15 1    
    16   12   13 1    
    17   13   14 2    
    18   14   15 1    
    19   16   17 1    
    20   16   21 1    
    21   17   18 1    
    22   18   19 1    
    23   19   20 1    
    24   19   22 1    
    25   20   21 1    
    26   22   23 3    
    27    1   24 1    
    28    1   25 1    
    29    1   26 1    
    30    2   27 1    
    31    3   28 1    
    32    9   29 1    
    33   13   30 1    
    34   14   31 1    
    35   15   32 1    
    36   16   33 1    
    37   17   34 1    
    38   17   35 1    
    39   18   36 1    
    40   18   37 1    
    41   19   38 1    
    42   20   39 1    
    43   20   40 1    
    44   21   41 1    
    45   21   42 1    
@<TRIPOS>SUBSTRUCTURE
     1 MOL         1 PERM              0 ****  ****    0 ROOT 
@<TRIPOS>NORMAL
@<TRIPOS>ALT_TYPE
MMFF94_ALT_TYPE_SET 
MMFF94 1 CR 2 CR 16 CR 17 CR 18 CR 19 CR 20 CR 21 CR 4 C5A 14 C5A 6 C5A \
11 C5A 13 C5B 7 C5B 12 C5B 9 CB 22 CSP 24 HC 25 HC 26 HC \
27 HC 29 HC 30 HC 31 HC 33 HC 34 HC 35 HC 36 HC 37 HC \
38 HC 39 HC 40 HC 41 HC 42 HC 32 HPYL 28 HOR 3 OR 10 NPYD \
5 NPYL 15 NPYL 8 N5B 23 NSP 
