#	Name:			2al5_ligand
#	Creating user name:	suminyi
#	Creation time:		Sun Sep 30 06:50:57 2018

#	Modifying user name:	suminyi
#	Modification time:	Sun Sep 30 06:50:57 2018

@<TRIPOS>MOLECULE
2al5_ligand
   23    23     1     1     0
SMALL
MMFF94_CHARGES


@<TRIPOS>ATOM
      1 N1         20.5070   61.7230   28.7380 N.am      1 MOL        -0.4691 
      2 C2         20.8770   61.3870   27.4790 C.2       1 MOL         0.6900 
      3 O2         20.1270   61.2380   26.5410 O.2       1 MOL        -0.5700 
      4 N3         22.1530   61.2150   27.2590 N.am      1 MOL        -0.4900 
      5 C4         23.1600   61.4050   28.0890 C.2       1 MOL         0.6156 
      6 O4         24.2720   61.3210   27.6210 O.2       1 MOL        -0.5700 
      7 C5         22.7470   61.7480   29.4580 C.2       1 MOL         0.1639 
      8 F5         23.7120   61.9390   30.3720 F         1 MOL        -0.1495 
      9 C6         21.4180   61.8900   29.7920 C.2       1 MOL        -0.0410 
     10 C7         19.0730   61.8910   28.9980 C.3       1 MOL         0.3001 
     11 C8         18.5830   63.2620   28.5010 C.3       1 MOL         0.3970 
     12 N8         19.0830   64.4330   29.3660 N.4       1 MOL        -0.8530 
     13 C9         17.0910   63.2000   28.1840 C.2       1 MOL         0.9060 
     14 O91        16.3980   64.1510   28.4720 O.co2     1 MOL        -0.9000 
     15 O92        16.6750   62.3370   27.4370 O.co2     1 MOL        -0.9000 
     16 H1         22.3740   61.0130   26.3160 H         1 MOL         0.3700 
     17 H2         21.0240   62.1360   30.7750 H         1 MOL         0.1500 
     18 H3         18.8850   61.8150   30.0640 H         1 MOL         0.0000 
     19 H4         18.5310   61.0780   28.5010 H         1 MOL         0.0000 
     20 H5         19.0420   63.4200   27.5220 H         1 MOL         0.0000 
     21 H6         18.9350   65.3340   28.8740 H         1 MOL         0.4500 
     22 H7         20.1300   64.4530   29.4930 H         1 MOL         0.4500 
     23 H8         18.6340   64.5520   30.3040 H         1 MOL         0.4500 
@<TRIPOS>BOND
     1    1    2 am   
     2    1    9 1    
     3    1   10 1    
     4    2    3 2    
     5    2    4 am   
     6    4    5 am   
     7    5    6 2    
     8    5    7 1    
     9    7    8 1    
    10    7    9 2    
    11   10   11 1    
    12   11   12 1    
    13   11   13 1    
    14   13   14 ar   
    15   13   15 ar   
    16    4   16 1    
    17    9   17 1    
    18   10   18 1    
    19   10   19 1    
    20   11   20 1    
    21   12   21 1    
    22   12   22 1    
    23   12   23 1    
@<TRIPOS>SUBSTRUCTURE
     1 MOL         1 PERM              0 ****  ****    0 ROOT 
@<TRIPOS>NORMAL
@<TRIPOS>ALT_TYPE
MMFF94_ALT_TYPE_SET 
MMFF94 10 CR 11 CR 13 CO2M 2 CONN 5 C=ON 7 C=C 9 C=C 17 HC 18 HC 19 HC \
20 HC 16 HNCO 21 HNR+ 22 HNR+ 23 HNR+ 14 O2CM 15 O2CM \
3 O=CN 6 O=CN 12 NR+ 1 NC=O 4 NC=O 8 F 
