#	Name:			2al5_ligand
#	Creating user name:	suminyi
#	Creation time:		Sun Sep 30 06:49:05 2018

#	Modifying user name:	suminyi
#	Modification time:	Sun Sep 30 06:49:05 2018

@<TRIPOS>MOLECULE
2al5_ligand
   23    23     1     1     0
SMALL
MMFF94_CHARGES


@<TRIPOS>ATOM
      1 N1         20.6200   61.7740   28.7660 N.am      1 FWD        -0.4691 
      2 C2         21.1390   61.6000   27.4630 C.2       1 FWD         0.6900 
      3 O2         20.4630   61.5270   26.4690 O.2       1 FWD        -0.5700 
      4 N3         22.5480   61.5090   27.4200 N.am      1 FWD        -0.4900 
      5 C4         23.4370   61.5780   28.4750 C.2       1 FWD         0.6156 
      6 O4         24.6420   61.4710   28.3450 O.2       1 FWD        -0.5700 
      7 C5         22.7720   61.7620   29.8090 C.2       1 FWD         0.1639 
      8 F5         23.5570   61.8630   30.9020 F         1 FWD        -0.1495 
      9 C6         21.4210   61.8750   29.8600 C.2       1 FWD        -0.0410 
     10 C7         19.1740   61.9480   28.9370 C.3       1 FWD         0.3001 
     11 C8         18.6210   63.2550   28.3840 C.3       1 FWD         0.3970 
     12 N8         18.9270   64.3890   29.3200 N.4       1 FWD        -0.8530 
     13 C9         17.1310   63.2100   28.0560 C.2       1 FWD         0.9060 
     14 O91        16.4070   64.0560   28.5290 O.co2     1 FWD        -0.9000 
     15 O92        16.7790   62.2140   27.3260 O.co2     1 FWD        -0.9000 
     16 H1         22.9515   61.3786   26.5144 H         1 FWD         0.3700 
     17 H2         20.9540   62.0559   30.8270 H         1 FWD         0.1500 
     18 H3         18.9489   61.9087   30.0130 H         1 FWD         0.0000 
     19 H4         18.6659   61.1172   28.4255 H         1 FWD         0.0000 
     20 H5         19.1493   63.4522   27.4396 H         1 FWD         0.0000 
     21 H6         18.5556   65.2464   28.9418 H         1 FWD         0.4500 
     22 H7         19.9254   64.4746   29.4291 H         1 FWD         0.4500 
     23 H8         18.5053   64.2072   30.2173 H         1 FWD         0.4500 
@<TRIPOS>BOND
     1    1    2 am   
     2    1    9 1    
     3    1   10 1    
     4    2    3 2    
     5    2    4 am   
     6    4    5 am   
     7    5    6 2    
     8    5    7 1    
     9    7    8 1    
    10    7    9 2    
    11   10   11 1    
    12   11   12 1    
    13   11   13 1    
    14   13   14 ar   
    15   13   15 ar   
    16    4   16 1    
    17    9   17 1    
    18   10   18 1    
    19   10   19 1    
    20   11   20 1    
    21   12   21 1    
    22   12   22 1    
    23   12   23 1    
@<TRIPOS>SUBSTRUCTURE
     1 FWD         1 PERM              0 ****  ****    0 ROOT 
@<TRIPOS>NORMAL
@<TRIPOS>ALT_TYPE
MMFF94_ALT_TYPE_SET 
MMFF94 10 CR 11 CR 13 CO2M 2 CONN 5 C=ON 7 C=C 9 C=C 17 HC 18 HC 19 HC \
20 HC 16 HNCO 21 HNR+ 22 HNR+ 23 HNR+ 14 O2CM 15 O2CM \
3 O=CN 6 O=CN 12 NR+ 1 NC=O 4 NC=O 8 F 
