#	Name:			3ozs_ligand
#	Creating user name:	suminyi
#	Creation time:		Sun Sep 30 06:50:57 2018

#	Modifying user name:	suminyi
#	Modification time:	Sun Sep 30 06:50:57 2018

@<TRIPOS>MOLECULE
3ozs_ligand
   50    52     1     1     0
SMALL
MMFF94_CHARGES


@<TRIPOS>ATOM
      1 C1        -19.9290   30.9130   13.4310 C.3       1 MOL         0.2800 
      2 C2        -18.5280   31.5280   13.5370 C.3       1 MOL         0.2800 
      3 C3        -17.6370   30.2670   13.5430 C.3       1 MOL         0.5356 
      4 O4        -18.2830   29.3760   12.6160 O.3       1 MOL        -0.5600 
      5 C5        -19.6690   29.7550   12.4430 C.3       1 MOL         0.4182 
      6 C6        -19.7530   30.2500   11.0220 C.2       1 MOL        -0.2882 
      7 N7        -16.2310   30.4020   13.1840 N.pl3     1 MOL         0.0476 
      8 O8        -20.4210   30.4300   14.7010 O.3       1 MOL        -0.6800 
      9 O9        -18.3880   32.3800   14.6790 O.3       1 MOL        -0.6800 
     10 C10       -20.5660   29.7310   10.1210 C.2       1 MOL        -0.2882 
     11 C11       -15.6690   31.3640   12.3880 C.2       1 MOL         0.0365 
     12 C12       -15.2270   29.5540   13.5690 C.2       1 MOL        -0.3016 
     13 C13       -14.0770   30.0410   13.0150 C.2       1 MOL         0.0462 
     14 N14       -14.3470   31.1780   12.2680 N.2       1 MOL        -0.5653 
     15 C15       -12.7210   29.3980   13.2350 C.3       1 MOL         1.2010 
     16 C16       -20.6550   30.2570    8.7200 C.3       1 MOL         0.4383 
     17 N17       -21.4330   29.3180    7.9390 N.am      1 MOL        -0.7301 
     18 C18       -22.2960   29.6760    6.9900 C.2       1 MOL         0.5438 
     19 C19       -23.2920   28.6620    6.5070 C.ar      1 MOL         0.0862 
     20 C20       -23.3080   27.2990    6.8750 C.ar      1 MOL         0.0825 
     21 C21       -24.2870   26.4520    6.3400 C.ar      1 MOL         0.0825 
     22 C22       -25.2850   26.9800    5.5160 C.ar      1 MOL        -0.1500 
     23 C23       -25.2920   28.3340    5.1610 C.ar      1 MOL         0.1330 
     24 C24       -24.2760   29.1510    5.6440 C.ar      1 MOL        -0.1500 
     25 N25       -26.3590   28.9280    4.3090 N.2       1 MOL         0.9070 
     26 O26       -22.3710   26.7980    7.7380 O.3       1 MOL        -0.5325 
     27 O27       -24.3000   25.1010    6.5950 O.3       1 MOL        -0.5325 
     28 O28       -22.2300   30.7980    6.5280 O.2       1 MOL        -0.5700 
     29 F29       -11.7890   29.8740   12.3910 F         1 MOL        -0.3400 
     30 F30       -12.2610   29.6220   14.4770 F         1 MOL        -0.3400 
     31 F31       -12.7540   28.0640   13.0620 F         1 MOL        -0.3400 
     32 O32       -27.0370   28.1910    3.6170 O.2       1 MOL        -0.5200 
     33 O33       -26.4580   30.1420    4.2650 O.3       1 MOL        -0.5200 
     34 H1        -20.6410   31.6290   13.0120 H         1 MOL         0.0000 
     35 H2        -18.3330   32.1080   12.6320 H         1 MOL         0.0000 
     36 H3        -17.6640   29.7750   14.5170 H         1 MOL         0.0000 
     37 H4        -20.3310   28.9000   12.6230 H         1 MOL         0.0000 
     38 H5        -19.0900   31.0690   10.7520 H         1 MOL         0.1500 
     39 H6        -19.7390   29.8430   15.1600 H         1 MOL         0.4000 
     40 H7        -18.3190   31.7690   15.5050 H         1 MOL         0.4000 
     41 H8        -21.2200   28.8950   10.3790 H         1 MOL         0.1500 
     42 H9        -16.2440   32.1540   11.9360 H         1 MOL         0.1500 
     43 H10       -15.4010   28.6780   14.1840 H         1 MOL         0.1500 
     44 H11       -19.6650   30.3650    8.2770 H         1 MOL         0.0000 
     45 H12       -21.1490   31.2340    8.7280 H         1 MOL         0.0000 
     46 H13       -21.5460   28.3800    8.3140 H         1 MOL         0.3700 
     47 H14       -26.0710   26.3120    5.1750 H         1 MOL         0.1500 
     48 H15       -24.2750   30.2090    5.3790 H         1 MOL         0.1500 
     49 H16       -22.3400   25.7840    7.7990 H         1 MOL         0.4500 
     50 H17       -23.4150   24.6280    6.5590 H         1 MOL         0.4500 
@<TRIPOS>BOND
     1    1    2 1    
     2    1    5 1    
     3    1    8 1    
     4    2    3 1    
     5    2    9 1    
     6    3    4 1    
     7    3    7 1    
     8    4    5 1    
     9    5    6 1    
    10    6   10 2    
    11    7   11 1    
    12    7   12 1    
    13   10   16 1    
    14   11   14 2    
    15   12   13 2    
    16   13   14 1    
    17   13   15 1    
    18   15   29 1    
    19   15   30 1    
    20   15   31 1    
    21   16   17 1    
    22   17   18 am   
    23   18   19 1    
    24   18   28 2    
    25   19   20 ar   
    26   19   24 ar   
    27   20   21 ar   
    28   20   26 1    
    29   21   22 ar   
    30   21   27 1    
    31   22   23 ar   
    32   23   24 ar   
    33   23   25 1    
    34   25   32 2    
    35   25   33 2    
    36    1   34 1    
    37    2   35 1    
    38    3   36 1    
    39    5   37 1    
    40    6   38 1    
    41    8   39 1    
    42    9   40 1    
    43   10   41 1    
    44   11   42 1    
    45   12   43 1    
    46   16   44 1    
    47   16   45 1    
    48   17   46 1    
    49   22   47 1    
    50   24   48 1    
    51   26   49 1    
    52   27   50 1    
@<TRIPOS>SUBSTRUCTURE
     1 MOL         1 PERM              0 ****  ****    0 ROOT 
@<TRIPOS>NORMAL
@<TRIPOS>ALT_TYPE
MMFF94_ALT_TYPE_SET 
MMFF94 1 CR 2 CR 3 CR 5 CR 15 CR 16 CR 11 C5A 12 C5A 13 C5B 19 CB 20 CB \
21 CB 22 CB 23 CB 24 CB 18 C=ON 6 C=C 10 C=C 34 HC 35 HC \
36 HC 37 HC 38 HC 41 HC 42 HC 43 HC 44 HC 45 HC 47 HC \
48 HC 46 HNCO 49 HOCC 50 HOCC 39 HOR 40 HOR 28 O=CN 32 O2N \
33 O2N 26 OC=C 27 OC=C 4 OR 8 OR 9 OR 7 NPYL 14 N5B \
25 NO2 17 NC=O 29 F 30 F 31 F 
