#	Name:			3ozs_ligand
#	Creating user name:	suminyi
#	Creation time:		Sun Sep 30 06:48:44 2018

#	Modifying user name:	suminyi
#	Modification time:	Sun Sep 30 06:48:44 2018

@<TRIPOS>MOLECULE
3ozs_ligand
   50    52     1     1     0
SMALL
MMFF94_CHARGES


@<TRIPOS>ATOM
      1 C1        -20.0310   30.8770   13.1890 C.3       1 OZS         0.2800 
      2 C2        -18.6110   31.4540   13.4010 C.3       1 OZS         0.2800 
      3 C3        -17.7330   30.1670   13.5090 C.3       1 OZS         0.5356 
      4 O4        -18.2840   29.3890   12.4280 O.3       1 OZS        -0.5600 
      5 C5        -19.6660   29.7520   12.1530 C.3       1 OZS         0.4182 
      6 C6        -19.8220   30.2710   10.7650 C.2       1 OZS        -0.2882 
      7 N7        -16.3340   30.3350   13.2220 N.pl3     1 OZS         0.0476 
      8 O8        -20.5670   30.2580   14.3450 O.3       1 OZS        -0.6800 
      9 O9        -18.5430   32.2570   14.5860 O.3       1 OZS        -0.6800 
     10 C10       -20.6290   29.6600    9.9150 C.2       1 OZS        -0.2882 
     11 C11       -15.7260   31.2980   12.3440 C.2       1 OZS         0.0365 
     12 C12       -15.3430   29.5540   13.7340 C.2       1 OZS        -0.3016 
     13 C13       -14.1910   30.0560   13.1430 C.2       1 OZS         0.0462 
     14 N14       -14.4220   31.1230   12.2990 N.2       1 OZS        -0.5653 
     15 C15       -12.8400   29.4920   13.3760 C.3       1 OZS         1.2010 
     16 C16       -20.8200   30.1560    8.4790 C.3       1 OZS         0.4383 
     17 N17       -21.7610   29.2760    7.7910 N.am      1 OZS        -0.7301 
     18 C18       -22.5620   29.7310    6.8260 C.2       1 OZS         0.5438 
     19 C19       -23.6450   28.8760    6.2250 C.ar      1 OZS         0.0862 
     20 C20       -23.6700   27.4750    6.4970 C.ar      1 OZS         0.0825 
     21 C21       -24.7550   26.7570    5.9300 C.ar      1 OZS         0.0825 
     22 C22       -25.7110   27.3220    5.1350 C.ar      1 OZS        -0.1500 
     23 C23       -25.6610   28.7390    4.9450 C.ar      1 OZS         0.1330 
     24 C24       -24.6070   29.5200    5.4730 C.ar      1 OZS        -0.1500 
     25 N25       -26.6670   29.3780    4.1410 N.2       1 OZS         0.9070 
     26 O26       -22.7190   26.8280    7.1590 O.3       1 OZS        -0.5325 
     27 O27       -24.8010   25.3950    6.1270 O.3       1 OZS        -0.5325 
     28 O28       -22.3960   30.9300    6.4020 O.2       1 OZS        -0.5700 
     29 F29       -12.0300   29.4730   12.3110 F         1 OZS        -0.3400 
     30 F30       -12.0910   30.1300   14.2860 F         1 OZS        -0.3400 
     31 F31       -12.7590   28.1620   13.5920 F         1 OZS        -0.3400 
     32 O32       -27.5020   28.7550    3.5290 O.2       1 OZS        -0.5200 
     33 O33       -26.6240   30.5930    4.0930 O.2       1 OZS        -0.5200 
     34 H1        -20.7327   31.6264   12.7941 H         1 OZS         0.0000 
     35 H2        -18.3032   32.0633   12.5384 H         1 OZS         0.0000 
     36 H3        -17.8568   29.6867   14.4908 H         1 OZS         0.0000 
     37 H4        -20.3204   28.8785   12.2901 H         1 OZS         0.0000 
     38 H5        -19.2700   31.1554   10.4503 H         1 OZS         0.1500 
     39 H6        -20.7937   30.9241   14.9833 H         1 OZS         0.4000 
     40 H7        -18.8509   31.7506   15.3284 H         1 OZS         0.4000 
     41 H8        -21.1744   28.7774   10.2459 H         1 OZS         0.1500 
     42 H9        -16.2685   32.0650   11.7932 H         1 OZS         0.1500 
     43 H10       -15.4327   28.7300   14.4404 H         1 OZS         0.1500 
     44 H11       -19.8536   30.1447    7.9537 H         1 OZS         0.0000 
     45 H12       -21.2177   31.1815    8.4932 H         1 OZS         0.0000 
     46 H13       -21.8059   28.3109    8.0490 H         1 OZS         0.3700 
     47 H14       -26.4795   26.7189    4.6652 H         1 OZS         0.1500 
     48 H15       -24.5562   30.5878    5.2934 H         1 OZS         0.1500 
     49 H16       -22.0728   27.4503    7.4715 H         1 OZS         0.4500 
     50 H17       -24.0854   25.1339    6.6947 H         1 OZS         0.4500 
@<TRIPOS>BOND
     1    1    2 1    
     2    1    5 1    
     3    1    8 1    
     4    2    3 1    
     5    2    9 1    
     6    3    4 1    
     7    3    7 1    
     8    4    5 1    
     9    5    6 1    
    10    6   10 2    
    11    7   11 1    
    12    7   12 1    
    13   10   16 1    
    14   11   14 2    
    15   12   13 2    
    16   13   14 1    
    17   13   15 1    
    18   15   29 1    
    19   15   30 1    
    20   15   31 1    
    21   16   17 1    
    22   17   18 am   
    23   18   19 1    
    24   18   28 2    
    25   19   20 ar   
    26   19   24 ar   
    27   20   21 ar   
    28   20   26 1    
    29   21   22 ar   
    30   21   27 1    
    31   22   23 ar   
    32   23   24 ar   
    33   23   25 1    
    34   25   32 2    
    35   25   33 2    
    36    1   34 1    
    37    2   35 1    
    38    3   36 1    
    39    5   37 1    
    40    6   38 1    
    41    8   39 1    
    42    9   40 1    
    43   10   41 1    
    44   11   42 1    
    45   12   43 1    
    46   16   44 1    
    47   16   45 1    
    48   17   46 1    
    49   22   47 1    
    50   24   48 1    
    51   26   49 1    
    52   27   50 1    
@<TRIPOS>SUBSTRUCTURE
     1 OZS         1 PERM              0 ****  ****    0 ROOT 
@<TRIPOS>NORMAL
@<TRIPOS>ALT_TYPE
MMFF94_ALT_TYPE_SET 
MMFF94 1 CR 2 CR 3 CR 5 CR 15 CR 16 CR 11 C5A 12 C5A 13 C5B 19 CB 20 CB \
21 CB 22 CB 23 CB 24 CB 18 C=ON 6 C=C 10 C=C 34 HC 35 HC \
36 HC 37 HC 38 HC 41 HC 42 HC 43 HC 44 HC 45 HC 47 HC \
48 HC 46 HNCO 49 HOCC 50 HOCC 39 HOR 40 HOR 28 O=CN 32 O2N \
33 O2N 26 OC=C 27 OC=C 4 OR 8 OR 9 OR 7 NPYL 14 N5B \
25 NO2 17 NC=O 29 F 30 F 31 F 
