#	Name:			2qbr_ligand
#	Creating user name:	suminyi
#	Creation time:		Sun Sep 30 06:50:57 2018

#	Modifying user name:	suminyi
#	Modification time:	Sun Sep 30 06:50:57 2018

@<TRIPOS>MOLECULE
2qbr_ligand
   42    44     1     1     0
SMALL
MMFF94_CHARGES


@<TRIPOS>ATOM
      1 S1         44.6120   14.4400    0.7320 S.3       1 MOL        -0.0800 
      2 C2         44.7830   15.7420    1.8770 C.2       1 MOL        -0.1920 
      3 C3         45.6020   15.3880    2.9170 C.2       1 MOL         0.0620 
      4 C4         46.1630   14.0830    2.7600 C.2       1 MOL         0.0570 
      5 C5         45.7210   13.4450    1.6190 C.2       1 MOL        -0.0130 
      6 C6         44.0990   17.0110    1.6670 C.2       1 MOL         1.0320 
      7 O7         44.1500   17.9420    2.4520 O.co2     1 MOL        -0.9000 
      8 O8         43.4660   17.1420    0.6450 O.co2     1 MOL        -0.9000 
      9 C9         46.0630   12.0900    1.2320 C.ar      1 MOL         0.0530 
     10 C10        47.3430   11.5550    1.4040 C.ar      1 MOL        -0.1500 
     11 C11        47.6590   10.2790    0.9480 C.ar      1 MOL         0.1000 
     12 C12        46.6710    9.5070    0.3290 C.ar      1 MOL        -0.1500 
     13 C13        45.3960   10.0300    0.1390 C.ar      1 MOL        -0.1500 
     14 C14        45.1030   11.3220    0.5680 C.ar      1 MOL        -0.1500 
     15 Br19       47.2140   13.3260    4.1220 Br        1 MOL        -0.0570 
     16 O20        45.8690   16.1420    4.0430 O.3       1 MOL        -0.3420 
     17 C21        47.0640   16.9780    4.0340 C.3       1 MOL         0.1740 
     18 C22        47.5020   17.4840    5.4040 C.2       1 MOL         0.9060 
     19 O25        46.6860   17.7240    6.2850 O.co2     1 MOL        -0.9000 
     20 O26        48.6950   17.6060    5.6180 O.co2     1 MOL        -0.9000 
     21 N29        48.9590    9.8720    1.0900 N.pl3     1 MOL        -0.8691 
     22 C30        49.4290    8.4900    0.9620 C.3       1 MOL         0.5126 
     23 C31        49.5040    7.8500    2.3360 C.ar      1 MOL        -0.1435 
     24 C34        48.3310    7.4560    2.9800 C.ar      1 MOL        -0.1500 
     25 C35        48.3850    6.8480    4.2310 C.ar      1 MOL        -0.1500 
     26 C36        49.6160    6.6240    4.8440 C.ar      1 MOL        -0.1500 
     27 C37        50.7920    7.0150    4.2070 C.ar      1 MOL        -0.1500 
     28 C38        50.7360    7.6280    2.9550 C.ar      1 MOL        -0.1500 
     29 H1         48.1250   12.1660    1.8330 H         1 MOL         0.1500 
     30 H2         46.8770    8.5110   -0.0490 H         1 MOL         0.1500 
     31 H3         44.6370    9.4380   -0.3650 H         1 MOL         0.1500 
     32 H4         44.1090   11.7250    0.4020 H         1 MOL         0.1500 
     33 H5         46.8920   17.8470    3.3950 H         1 MOL         0.0000 
     34 H6         47.9010   16.4000    3.6350 H         1 MOL         0.0000 
     35 H7         49.6260   10.5710    1.3980 H         1 MOL         0.4000 
     36 H8         50.4170    8.4960    0.4950 H         1 MOL         0.0000 
     37 H9         48.7830    7.8980    0.3110 H         1 MOL         0.0000 
     38 H10        47.3660    7.6080    2.4960 H         1 MOL         0.1500 
     39 H11        47.4630    6.5240    4.7080 H         1 MOL         0.1500 
     40 H12        49.6510    6.1140    5.8010 H         1 MOL         0.1500 
     41 H13        51.7510    6.8030    4.6670 H         1 MOL         0.1500 
     42 H14        51.6510    7.9020    2.4420 H         1 MOL         0.1500 
@<TRIPOS>BOND
     1    1    2 1    
     2    1    5 1    
     3    2    3 2    
     4    2    6 1    
     5    3    4 1    
     6    3   16 1    
     7    4    5 2    
     8    4   15 1    
     9    5    9 1    
    10    6    7 ar   
    11    6    8 ar   
    12    9   10 ar   
    13    9   14 ar   
    14   10   11 ar   
    15   11   12 ar   
    16   11   21 1    
    17   12   13 ar   
    18   13   14 ar   
    19   16   17 1    
    20   17   18 1    
    21   18   19 ar   
    22   18   20 ar   
    23   21   22 1    
    24   22   23 1    
    25   23   24 ar   
    26   23   28 ar   
    27   24   25 ar   
    28   25   26 ar   
    29   26   27 ar   
    30   27   28 ar   
    31   10   29 1    
    32   12   30 1    
    33   13   31 1    
    34   14   32 1    
    35   17   33 1    
    36   17   34 1    
    37   21   35 1    
    38   22   36 1    
    39   22   37 1    
    40   24   38 1    
    41   25   39 1    
    42   26   40 1    
    43   27   41 1    
    44   28   42 1    
@<TRIPOS>SUBSTRUCTURE
     1 MOL         1 PERM              0 ****  ****    0 ROOT 
@<TRIPOS>NORMAL
@<TRIPOS>ALT_TYPE
MMFF94_ALT_TYPE_SET 
MMFF94 17 CR 22 CR 2 C5A 5 C5A 3 C5B 4 C5B 9 CB 10 CB 11 CB 12 CB 13 CB \
14 CB 23 CB 24 CB 25 CB 26 CB 27 CB 28 CB 6 CO2M 18 CO2M \
29 HC 30 HC 31 HC 32 HC 33 HC 34 HC 36 HC 37 HC 38 HC \
39 HC 40 HC 41 HC 42 HC 35 HNCC 7 O2CM 8 O2CM 19 O2CM \
20 O2CM 16 OC=C 21 NC=C 1 STHI 15 BR 
