#	Name:			2qbr_ligand
#	Creating user name:	suminyi
#	Creation time:		Sun Sep 30 06:48:44 2018

#	Modifying user name:	suminyi
#	Modification time:	Sun Sep 30 06:48:45 2018

@<TRIPOS>MOLECULE
2qbr_ligand
   42    44     1     1     0
SMALL
MMFF94_CHARGES


@<TRIPOS>ATOM
      1 S1         44.9240   14.3230    0.6640 S.3       1 MOL        -0.0800 
      2 C2         45.0960   15.6460    1.7300 C.2       1 MOL        -0.1920 
      3 C3         45.9700   15.2890    2.7910 C.2       1 MOL         0.0620 
      4 C4         46.4440   13.9560    2.6530 C.2       1 MOL         0.0570 
      5 C5         45.9450   13.2820    1.5090 C.2       1 MOL        -0.0130 
      6 C6         44.4140   16.8590    1.4850 C.2       1 MOL         1.0320 
      7 O7         44.4470   17.7800    2.2990 O.co2     1 MOL        -0.9000 
      8 O8         43.7890   16.9570    0.4240 O.co2     1 MOL        -0.9000 
      9 C9         46.2010   11.8870    1.0260 C.ar      1 MOL         0.0530 
     10 C10        47.5180   11.3150    1.0600 C.ar      1 MOL        -0.1500 
     11 C11        47.7370    9.9830    0.6010 C.ar      1 MOL         0.1000 
     12 C12        46.6290    9.2030    0.0970 C.ar      1 MOL        -0.1500 
     13 C13        45.3100    9.7660    0.0560 C.ar      1 MOL        -0.1500 
     14 C14        45.1080   11.1050    0.5240 C.ar      1 MOL        -0.1500 
     15 BR19       47.6320   13.1870    3.9130 Br        1 MOL        -0.0570 
     16 O20        46.3660   16.1140    3.9000 O.3       1 MOL        -0.3420 
     17 C21        47.5820   16.8460    3.7100 C.3       1 MOL         0.1740 
     18 C22        47.9420   17.5920    4.9940 C.2       1 MOL         0.9060 
     19 O25        47.1630   17.5430    5.9630 O.co2     1 MOL        -0.9000 
     20 O26        49.0030   18.2220    5.0270 O.co2     1 MOL        -0.9000 
     21 N29        49.0320    9.5000    0.6690 N.pl3     1 MOL        -0.8691 
     22 C30        49.4040    8.0820    0.8060 C.3       1 MOL         0.5126 
     23 C31        49.4490    7.6120    2.2450 C.ar      1 MOL        -0.1435 
     24 C34        48.2330    7.1950    2.8950 C.ar      1 MOL        -0.1500 
     25 C35        48.2680    6.7450    4.2530 C.ar      1 MOL        -0.1500 
     26 C36        49.5260    6.7190    4.9440 C.ar      1 MOL        -0.1500 
     27 C37        50.7460    7.1350    4.3000 C.ar      1 MOL        -0.1500 
     28 C38        50.7060    7.5850    2.9370 C.ar      1 MOL        -0.1500 
     29 H1         48.3499   11.8991    1.4366 H         1 MOL         0.1500 
     30 H2         46.7953    8.1899   -0.2509 H         1 MOL         0.1500 
     31 H3         44.4770    9.1858   -0.3242 H         1 MOL         0.1500 
     32 H4         44.1129   11.5343    0.4984 H         1 MOL         0.1500 
     33 H5         47.4489   17.5695    2.8922 H         1 MOL         0.0000 
     34 H6         48.3925   16.1479    3.4537 H         1 MOL         0.0000 
     35 H7         49.7972   10.1877    0.6198 H         1 MOL         0.4000 
     36 H8         50.3990    7.9372    0.3600 H         1 MOL         0.0000 
     37 H9         48.6664    7.4732    0.2626 H         1 MOL         0.0000 
     38 H10        47.2928    7.2220    2.3562 H         1 MOL         0.1500 
     39 H11        47.3591    6.4288    4.7519 H         1 MOL         0.1500 
     40 H12        49.5589    6.3790    5.9728 H         1 MOL         0.1500 
     41 H13        51.6857    7.1085    4.8397 H         1 MOL         0.1500 
     42 H14        51.6144    7.9006    2.4367 H         1 MOL         0.1500 
@<TRIPOS>BOND
     1    1    2 1    
     2    1    5 1    
     3    2    3 2    
     4    2    6 1    
     5    3    4 1    
     6    3   16 1    
     7    4    5 2    
     8    4   15 1    
     9    5    9 1    
    10    6    7 ar   
    11    6    8 ar   
    12    9   10 ar   
    13    9   14 ar   
    14   10   11 ar   
    15   11   12 ar   
    16   11   21 1    
    17   12   13 ar   
    18   13   14 ar   
    19   16   17 1    
    20   17   18 1    
    21   18   19 ar   
    22   18   20 ar   
    23   21   22 1    
    24   22   23 1    
    25   23   24 ar   
    26   23   28 ar   
    27   24   25 ar   
    28   25   26 ar   
    29   26   27 ar   
    30   27   28 ar   
    31   10   29 1    
    32   12   30 1    
    33   13   31 1    
    34   14   32 1    
    35   17   33 1    
    36   17   34 1    
    37   21   35 1    
    38   22   36 1    
    39   22   37 1    
    40   24   38 1    
    41   25   39 1    
    42   26   40 1    
    43   27   41 1    
    44   28   42 1    
@<TRIPOS>SUBSTRUCTURE
     1 MOL         1 PERM              0 ****  ****    0 ROOT 
@<TRIPOS>NORMAL
@<TRIPOS>ALT_TYPE
MMFF94_ALT_TYPE_SET 
MMFF94 17 CR 22 CR 2 C5A 5 C5A 3 C5B 4 C5B 9 CB 10 CB 11 CB 12 CB 13 CB \
14 CB 23 CB 24 CB 25 CB 26 CB 27 CB 28 CB 6 CO2M 18 CO2M \
29 HC 30 HC 31 HC 32 HC 33 HC 34 HC 36 HC 37 HC 38 HC \
39 HC 40 HC 41 HC 42 HC 35 HNCC 7 O2CM 8 O2CM 19 O2CM \
20 O2CM 16 OC=C 21 NC=C 1 STHI 15 BR 
