#	Name:			3qgy_ligand
#	Creating user name:	suminyi
#	Creation time:		Sun Sep 30 06:48:53 2018

#	Modifying user name:	suminyi
#	Modification time:	Sun Sep 30 06:48:53 2018

@<TRIPOS>MOLECULE
3qgy_ligand
   46    50     1     1     0
SMALL
MMFF94_CHARGES


@<TRIPOS>ATOM
      1 C1         19.2970   -7.9620    4.0200 C.ar      1 PQC        -0.1500 
      2 C2         20.1870   -7.0360    3.1240 C.ar      1 PQC        -0.1500 
      3 C3         20.0490   -8.8480    5.0240 C.ar      1 PQC         0.0400 
      4 C4         21.4290   -9.0680    4.9740 C.ar      1 PQC         0.0000 
      5 C5         21.9540   -9.9160    5.9940 C.2       1 PQC        -0.1500 
      6 S6         19.4190   -9.6990    6.3290 S.3       1 PQC        -0.0800 
      7 C7         20.9170  -10.3480    6.8330 C.2       1 PQC        -0.0130 
      8 C8         21.0240  -11.2760    8.0230 C.ar      1 PQC         0.0530 
      9 C9         19.8510  -11.4970    8.8170 C.ar      1 PQC        -0.1500 
     10 C10        22.2240  -11.9660    8.3940 C.ar      1 PQC        -0.1500 
     11 C11        22.2660  -12.8360    9.5050 C.ar      1 PQC        -0.1500 
     12 C12        21.0940  -13.0380   10.2720 C.ar      1 PQC        -0.1500 
     13 C13        22.2120   -8.4540    3.8660 C.ar      1 PQC         0.3100 
     14 C14        21.6300   -7.5180    2.9470 C.ar      1 PQC         0.0000 
     15 C15        22.4840   -7.0510    1.9040 C.ar      1 PQC         0.1600 
     16 N16        23.7750   -7.4770    1.8250 N.ar      1 PQC        -0.6200 
     17 N17        23.5200   -8.8270    3.7150 N.ar      1 PQC        -0.6200 
     18 C18        24.2930   -8.3620    2.7220 C.ar      1 PQC         0.7200 
     19 N19        25.6420   -8.7590    2.6090 N.pl3     1 PQC        -0.6000 
     20 C20        26.4510   -9.6330    3.4330 C.ar      1 PQC         0.1000 
     21 C21        26.0680  -10.1240    4.7250 C.ar      1 PQC        -0.1500 
     22 C22        27.7380  -10.0380    2.9430 C.ar      1 PQC        -0.1500 
     23 C23        28.6080  -10.8920    3.6850 C.ar      1 PQC        -0.1500 
     24 C24        28.1960  -11.3630    4.9660 C.ar      1 PQC        -0.1500 
     25 C25        26.9130  -10.9790    5.5000 C.ar      1 PQC        -0.0090 
     26 S26        26.3460  -11.4930    7.1230 S.o2      1 PQC         1.4470 
     27 O27        27.2760  -10.8830    8.0690 O.2       1 PQC        -0.6500 
     28 O28        26.0070  -12.8970    7.1390 O.2       1 PQC        -0.6500 
     29 N29        24.8160  -10.7050    7.4270 N.am      1 PQC        -0.9780 
     30 C30        19.8800  -12.3660    9.9320 C.ar      1 PQC        -0.1500 
     31 H1         18.2163   -7.9767    3.9366 H         1 PQC         0.1500 
     32 H2         19.8122   -6.1277    2.6662 H         1 PQC         0.1500 
     33 H3         23.0029  -10.1871    6.1044 H         1 PQC         0.1500 
     34 H4         18.9281  -10.9904    8.5587 H         1 PQC         0.1500 
     35 H5         23.1225  -11.8160    7.8064 H         1 PQC         0.1500 
     36 H6         23.1867  -13.3442    9.7679 H         1 PQC         0.1500 
     37 H7         21.1176  -13.7078   11.1240 H         1 PQC         0.1500 
     38 H8         22.1023   -6.3518    1.1688 H         1 PQC         0.1500 
     39 H9         26.1375   -8.3576    1.8001 H         1 PQC         0.4000 
     40 H10        25.1037   -9.8369    5.1285 H         1 PQC         0.1500 
     41 H11        28.0616   -9.6814    1.9718 H         1 PQC         0.1500 
     42 H12        29.5712  -11.1793    3.2792 H         1 PQC         0.1500 
     43 H13        28.8487  -12.0111    5.5396 H         1 PQC         0.1500 
     44 H14        24.3336  -10.8650    8.2882 H         1 PQC         0.4200 
     45 H15        24.4229  -10.0941    6.7397 H         1 PQC         0.4200 
     46 H16        18.9863  -12.5214   10.5254 H         1 PQC         0.1500 
@<TRIPOS>BOND
     1    1    2 ar   
     2    1    3 ar   
     3    2   14 ar   
     4    3    4 ar   
     5    3    6 1    
     6    4    5 1    
     7    4   13 ar   
     8    5    7 2    
     9    6    7 1    
    10    7    8 1    
    11    8    9 ar   
    12    8   10 ar   
    13    9   30 ar   
    14   10   11 ar   
    15   11   12 ar   
    16   12   30 ar   
    17   13   14 ar   
    18   13   17 ar   
    19   14   15 ar   
    20   15   16 ar   
    21   16   18 ar   
    22   17   18 ar   
    23   18   19 1    
    24   19   20 1    
    25   20   21 ar   
    26   20   22 ar   
    27   21   25 ar   
    28   22   23 ar   
    29   23   24 ar   
    30   24   25 ar   
    31   25   26 1    
    32   26   27 2    
    33   26   28 2    
    34   26   29 am   
    35    1   31 1    
    36    2   32 1    
    37    5   33 1    
    38    9   34 1    
    39   10   35 1    
    40   11   36 1    
    41   12   37 1    
    42   15   38 1    
    43   19   39 1    
    44   21   40 1    
    45   22   41 1    
    46   23   42 1    
    47   24   43 1    
    48   29   44 1    
    49   29   45 1    
    50   30   46 1    
@<TRIPOS>SUBSTRUCTURE
     1 PQC         1 PERM              0 ****  ****    0 ROOT 
@<TRIPOS>NORMAL
@<TRIPOS>ALT_TYPE
MMFF94_ALT_TYPE_SET 
MMFF94 7 C5A 3 C5A 5 C5B 4 C5B 1 CB 2 CB 8 CB 9 CB 10 CB 11 CB 12 CB \
13 CB 14 CB 15 CB 18 CB 20 CB 21 CB 22 CB 23 CB 24 CB \
25 CB 30 CB 31 HC 32 HC 33 HC 34 HC 35 HC 36 HC 37 HC \
38 HC 40 HC 41 HC 42 HC 43 HC 46 HC 39 HNCC 44 HNSO 45 HNSO \
27 O2S 28 O2S 16 NPYD 17 NPYD 29 NSO2 19 NC=N 6 STHI \
26 SO2N 
