#	Name:			3qgy_ligand
#	Creating user name:	suminyi
#	Creation time:		Sun Sep 30 06:51:03 2018

#	Modifying user name:	suminyi
#	Modification time:	Sun Sep 30 06:51:03 2018

@<TRIPOS>MOLECULE
3qgy_ligand
   46    50     1     1     0
SMALL
MMFF94_CHARGES


@<TRIPOS>ATOM
      1 C1         19.6150   -7.6570    4.1160 C.ar      1 MOL        -0.1500 
      2 C2         20.4130   -7.2190    3.0540 C.ar      1 MOL        -0.1500 
      3 C3         20.1420   -8.5880    5.0090 C.ar      1 MOL         0.0400 
      4 C4         21.4090   -9.0870    4.8390 C.ar      1 MOL         0.0000 
      5 C5         21.7990   -9.9960    5.8700 C.2       1 MOL        -0.1500 
      6 S6         19.3270   -9.1930    6.4490 S.3       1 MOL        -0.0800 
      7 C7         20.7820  -10.1370    6.8000 C.2       1 MOL        -0.0130 
      8 C8         20.9290  -11.0170    7.9540 C.ar      1 MOL         0.0530 
      9 C9         19.9190  -11.0640    8.9250 C.ar      1 MOL        -0.1500 
     10 C10        22.0400  -11.8610    8.1210 C.ar      1 MOL        -0.1500 
     11 C11        22.1300  -12.7220    9.2130 C.ar      1 MOL        -0.1500 
     12 C12        21.1020  -12.7780   10.1490 C.ar      1 MOL        -0.1500 
     13 C13        22.2180   -8.6760    3.7810 C.ar      1 MOL         0.3100 
     14 C14        21.7140   -7.7240    2.9030 C.ar      1 MOL         0.0000 
     15 C15        22.5640   -7.2890    1.8950 C.ar      1 MOL         0.1600 
     16 N16        23.8310   -7.7310    1.7750 N.ar      1 MOL        -0.6200 
     17 N17        23.4640   -9.1440    3.6540 N.ar      1 MOL        -0.6200 
     18 C18        24.2170   -8.6220    2.6860 C.ar      1 MOL         0.7200 
     19 N19        25.5300   -8.9330    2.6240 N.pl3     1 MOL        -0.6000 
     20 C20        26.3950   -9.6360    3.4340 C.ar      1 MOL         0.1000 
     21 C21        26.1060   -9.9670    4.7620 C.ar      1 MOL        -0.1500 
     22 C22        27.6630   -9.9330    2.9390 C.ar      1 MOL        -0.1500 
     23 C23        28.5930  -10.6080    3.7260 C.ar      1 MOL        -0.1500 
     24 C24        28.2820  -10.9650    5.0370 C.ar      1 MOL        -0.1500 
     25 C25        27.0380  -10.6290    5.5820 C.ar      1 MOL        -0.0090 
     26 S26        26.7510  -10.9470    7.3320 S.o2      1 MOL         1.4470 
     27 O27        26.9280   -9.7700    8.1520 O.2       1 MOL        -0.6500 
     28 O28        25.7250  -11.9350    7.6360 O.2       1 MOL        -0.6500 
     29 N29        25.2680  -10.3210    7.4020 N.am      1 MOL        -0.9780 
     30 C30        19.9980  -11.9420   10.0070 C.ar      1 MOL        -0.1500 
     31 H1         18.6080   -7.2630    4.2490 H         1 MOL         0.1500 
     32 H2         20.0250   -6.4740    2.3600 H         1 MOL         0.1500 
     33 H3         22.7730  -10.4690    5.9010 H         1 MOL         0.1500 
     34 H4         19.0600  -10.4040    8.8570 H         1 MOL         0.1500 
     35 H5         22.8500  -11.8930    7.4010 H         1 MOL         0.1500 
     36 H6         23.0030  -13.3680    9.3140 H         1 MOL         0.1500 
     37 H7         21.1650  -13.4700   10.9880 H         1 MOL         0.1500 
     38 H8         22.2550   -6.5190    1.1980 H         1 MOL         0.1500 
     39 H9         25.9750   -8.4400    1.8580 H         1 MOL         0.4000 
     40 H10        25.1810   -9.6060    5.1800 H         1 MOL         0.1500 
     41 H11        27.9500   -9.5960    1.9470 H         1 MOL         0.1500 
     42 H12        29.5870  -10.8080    3.3270 H         1 MOL         0.1500 
     43 H13        29.0440  -11.4550    5.6470 H         1 MOL         0.1500 
     44 H14        25.1590  -10.6000    8.3560 H         1 MOL         0.4200 
     45 H15        24.8040  -11.0180    6.8590 H         1 MOL         0.4200 
     46 H16        19.1980  -11.9710   10.7450 H         1 MOL         0.1500 
@<TRIPOS>BOND
     1    1    2 ar   
     2    1    3 ar   
     3    2   14 ar   
     4    3    4 ar   
     5    3    6 1    
     6    4    5 1    
     7    4   13 ar   
     8    5    7 2    
     9    6    7 1    
    10    7    8 1    
    11    8    9 ar   
    12    8   10 ar   
    13    9   30 ar   
    14   10   11 ar   
    15   11   12 ar   
    16   12   30 ar   
    17   13   14 ar   
    18   13   17 ar   
    19   14   15 ar   
    20   15   16 ar   
    21   16   18 ar   
    22   17   18 ar   
    23   18   19 1    
    24   19   20 1    
    25   20   21 ar   
    26   20   22 ar   
    27   21   25 ar   
    28   22   23 ar   
    29   23   24 ar   
    30   24   25 ar   
    31   25   26 1    
    32   26   27 2    
    33   26   28 2    
    34   26   29 am   
    35    1   31 1    
    36    2   32 1    
    37    5   33 1    
    38    9   34 1    
    39   10   35 1    
    40   11   36 1    
    41   12   37 1    
    42   15   38 1    
    43   19   39 1    
    44   21   40 1    
    45   22   41 1    
    46   23   42 1    
    47   24   43 1    
    48   29   44 1    
    49   29   45 1    
    50   30   46 1    
@<TRIPOS>SUBSTRUCTURE
     1 MOL         1 PERM              0 ****  ****    0 ROOT 
@<TRIPOS>NORMAL
@<TRIPOS>ALT_TYPE
MMFF94_ALT_TYPE_SET 
MMFF94 7 C5A 3 C5A 5 C5B 4 C5B 1 CB 2 CB 8 CB 9 CB 10 CB 11 CB 12 CB \
13 CB 14 CB 15 CB 18 CB 20 CB 21 CB 22 CB 23 CB 24 CB \
25 CB 30 CB 31 HC 32 HC 33 HC 34 HC 35 HC 36 HC 37 HC \
38 HC 40 HC 41 HC 42 HC 43 HC 46 HC 39 HNCC 44 HNSO 45 HNSO \
27 O2S 28 O2S 16 NPYD 17 NPYD 29 NSO2 19 NC=N 6 STHI \
26 SO2N 
