#	Name:			1qkt_ligand
#	Creating user name:	suminyi
#	Creation time:		Sun Sep 30 06:51:01 2018

#	Modifying user name:	suminyi
#	Modification time:	Sun Sep 30 06:51:01 2018

@<TRIPOS>MOLECULE
1qkt_ligand
   44    47     1     1     0
SMALL
MMFF94_CHARGES


@<TRIPOS>ATOM
      1 C1          0.8000   53.1540  165.1820 C.ar      1 MOL        -0.1500 
      2 C2          2.1830   53.2370  165.0960 C.ar      1 MOL        -0.1500 
      3 C3          2.9640   52.0950  165.1980 C.ar      1 MOL         0.0825 
      4 O3          4.3170   52.2040  165.0660 O.3       1 MOL        -0.5325 
      5 C4          2.3490   50.8630  165.4100 C.ar      1 MOL        -0.1500 
      6 C5          0.9530   50.7650  165.4830 C.ar      1 MOL        -0.1435 
      7 C6          0.3270   49.3890  165.6920 C.3       1 MOL         0.1435 
      8 C7         -1.1520   49.4330  166.1340 C.3       1 MOL         0.0000 
      9 C8         -1.9260   50.4130  165.2300 C.3       1 MOL         0.0000 
     10 C9         -1.3730   51.8540  165.4450 C.3       1 MOL         0.1435 
     11 C10         0.1600   51.9190  165.3370 C.ar      1 MOL        -0.1435 
     12 C11        -2.1360   52.8560  164.5230 C.3       1 MOL         0.0000 
     13 C12        -3.6720   52.8130  164.7520 C.3       1 MOL         0.0000 
     14 C13        -4.2190   51.3780  164.5590 C.3       1 MOL         0.0000 
     15 C14        -3.4530   50.4310  165.5100 C.3       1 MOL         0.0000 
     16 C15        -4.2670   49.1260  165.4440 C.3       1 MOL         0.0000 
     17 C16        -5.7360   49.6300  165.3610 C.3       1 MOL         0.0000 
     18 C17        -5.6610   51.1530  165.0760 C.3       1 MOL         0.2800 
     19 O17        -6.6400   51.5690  164.1250 O.3       1 MOL        -0.6800 
     20 C18        -4.1220   50.9760  163.0470 C.3       1 MOL         0.0000 
     21 H1          0.2350   54.0770  165.1140 H         1 MOL         0.1500 
     22 H2          2.6500   54.2030  164.9300 H         1 MOL         0.1500 
     23 H3          4.4760   52.9820  164.4160 H         1 MOL         0.4500 
     24 H4          2.9630   49.9720  165.4890 H         1 MOL         0.1500 
     25 H5          0.9020   48.8290  166.4320 H         1 MOL         0.0000 
     26 H6          0.4000   48.8380  164.7510 H         1 MOL         0.0000 
     27 H7         -1.2200   49.7520  167.1770 H         1 MOL         0.0000 
     28 H8         -1.5780   48.4310  166.0670 H         1 MOL         0.0000 
     29 H9         -1.7470   50.1190  164.1970 H         1 MOL         0.0000 
     30 H10        -1.6060   52.1430  166.4730 H         1 MOL         0.0000 
     31 H11        -1.8990   52.6460  163.4780 H         1 MOL         0.0000 
     32 H12        -1.8140   53.8780  164.7040 H         1 MOL         0.0000 
     33 H13        -4.1670   53.5070  164.0690 H         1 MOL         0.0000 
     34 H14        -3.8890   53.1560  165.7670 H         1 MOL         0.0000 
     35 H15        -3.5740   50.8090  166.5310 H         1 MOL         0.0000 
     36 H16        -4.1020   48.4930  166.3160 H         1 MOL         0.0000 
     37 H17        -4.0090   48.5540  164.5510 H         1 MOL         0.0000 
     38 H18        -6.2660   49.4590  166.3010 H         1 MOL         0.0000 
     39 H19        -6.2770   49.1100  164.5670 H         1 MOL         0.0000 
     40 H20        -5.8030   51.6970  166.0150 H         1 MOL         0.0000 
     41 H21        -6.4380   52.4920  163.9010 H         1 MOL         0.4000 
     42 H22        -3.0940   50.9080  162.6910 H         1 MOL         0.0000 
     43 H23        -4.6220   51.7210  162.4240 H         1 MOL         0.0000 
     44 H24        -4.6020   50.0170  162.8450 H         1 MOL         0.0000 
@<TRIPOS>BOND
     1    1    2 ar   
     2    1   11 ar   
     3    2    3 ar   
     4    3    4 1    
     5    3    5 ar   
     6    5    6 ar   
     7    6    7 1    
     8    6   11 ar   
     9    7    8 1    
    10    8    9 1    
    11    9   10 1    
    12    9   15 1    
    13   10   11 1    
    14   10   12 1    
    15   12   13 1    
    16   13   14 1    
    17   14   15 1    
    18   14   18 1    
    19   14   20 1    
    20   15   16 1    
    21   16   17 1    
    22   17   18 1    
    23   18   19 1    
    24    1   21 1    
    25    2   22 1    
    26    4   23 1    
    27    5   24 1    
    28    7   25 1    
    29    7   26 1    
    30    8   27 1    
    31    8   28 1    
    32    9   29 1    
    33   10   30 1    
    34   12   31 1    
    35   12   32 1    
    36   13   33 1    
    37   13   34 1    
    38   15   35 1    
    39   16   36 1    
    40   16   37 1    
    41   17   38 1    
    42   17   39 1    
    43   18   40 1    
    44   19   41 1    
    45   20   42 1    
    46   20   43 1    
    47   20   44 1    
@<TRIPOS>SUBSTRUCTURE
     1 MOL         1 PERM              0 ****  ****    0 ROOT 
@<TRIPOS>NORMAL
@<TRIPOS>ALT_TYPE
MMFF94_ALT_TYPE_SET 
MMFF94 7 CR 8 CR 9 CR 10 CR 12 CR 13 CR 14 CR 15 CR 16 CR 17 CR 18 CR \
20 CR 1 CB 2 CB 3 CB 5 CB 6 CB 11 CB 21 HC 22 HC 24 HC \
25 HC 26 HC 27 HC 28 HC 29 HC 30 HC 31 HC 32 HC 33 HC \
34 HC 35 HC 36 HC 37 HC 38 HC 39 HC 40 HC 42 HC 43 HC \
44 HC 23 HOCC 41 HOR 4 OC=C 19 OR 
