#	Name:			3dd0_ligand
#	Creating user name:	suminyi
#	Creation time:		Sun Sep 30 06:51:02 2018

#	Modifying user name:	suminyi
#	Modification time:	Sun Sep 30 06:51:02 2018

@<TRIPOS>MOLECULE
3dd0_ligand
   26    27     1     1     0
SMALL
MMFF94_CHARGES


@<TRIPOS>ATOM
      1 N1         -5.9080   -0.8250   16.2870 N.am      1 MOL        -0.9780 
      2 C2         -3.6750    3.2970   15.2700 C.ar      1 MOL         0.2272 
      3 C3         -4.7610    3.9470   14.7490 C.ar      1 MOL         0.0400 
      4 C4         -4.6230    5.1550   14.0650 C.ar      1 MOL        -0.1500 
      5 C5         -3.3450    5.6910   13.8910 C.ar      1 MOL         0.0825 
      6 C8         -2.0090    7.6630   13.1030 C.3       1 MOL         0.2800 
      7 O1         -5.4050    0.3410   18.1140 O.2       1 MOL        -0.6500 
      8 O2         -7.5560    0.7610   16.7760 O.2       1 MOL        -0.6500 
      9 S1         -6.1120    0.6680   16.8880 S.o2      1 MOL         1.5000 
     10 C1         -5.2820    1.9540   15.9210 C.2       1 MOL         0.3161 
     11 N2         -3.9370    2.1760   15.9460 N.2       1 MOL        -0.5653 
     12 S2         -6.2680    3.1230   15.0560 S.3       1 MOL        -0.0800 
     13 C6         -2.2310    5.0100   14.3990 C.ar      1 MOL        -0.1500 
     14 C7         -2.3970    3.8210   15.1100 C.ar      1 MOL        -0.1500 
     15 O3         -3.2300    6.8840   13.1990 O.3       1 MOL        -0.3625 
     16 C9         -1.6960    8.3360   14.4540 C.3       1 MOL         0.0000 
     17 H1         -5.1300   -1.1290   16.8880 H         1 MOL         0.4200 
     18 H2         -6.7040   -1.2660   16.7630 H         1 MOL         0.4200 
     19 H3         -5.4900    5.6740   13.6670 H         1 MOL         0.1500 
     20 H4         -2.1570    8.4350   12.3420 H         1 MOL         0.0000 
     21 H5         -1.1830    7.0200   12.7850 H         1 MOL         0.0000 
     22 H6         -1.2250    5.3820   14.2470 H         1 MOL         0.1500 
     23 H7         -1.5350    3.3070   15.5320 H         1 MOL         0.1500 
     24 H8         -0.7610    8.8950   14.3840 H         1 MOL         0.0000 
     25 H9         -1.5960    7.6000   15.2530 H         1 MOL         0.0000 
     26 H10        -2.4900    9.0330   14.7250 H         1 MOL         0.0000 
@<TRIPOS>BOND
     1    9    1 am   
     2    2    3 ar   
     3   11    2 1    
     4    2   14 ar   
     5    3    4 ar   
     6    3   12 1    
     7    4    5 ar   
     8    5   13 ar   
     9    5   15 1    
    10   15    6 1    
    11    6   16 1    
    12    9    7 2    
    13    9    8 2    
    14   10    9 1    
    15   10   11 2    
    16   10   12 1    
    17   13   14 ar   
    18    1   17 1    
    19    1   18 1    
    20    4   19 1    
    21    6   20 1    
    22    6   21 1    
    23   13   22 1    
    24   14   23 1    
    25   16   24 1    
    26   16   25 1    
    27   16   26 1    
@<TRIPOS>SUBSTRUCTURE
     1 MOL         1 PERM              0 ****  ****    0 ROOT 
@<TRIPOS>NORMAL
@<TRIPOS>ALT_TYPE
MMFF94_ALT_TYPE_SET 
MMFF94 6 CR 16 CR 10 C5A 3 C5A 2 C5B 4 CB 5 CB 13 CB 14 CB 19 HC 20 HC \
21 HC 22 HC 23 HC 24 HC 25 HC 26 HC 17 HNSO 18 HNSO 7 O2S \
8 O2S 15 OC=C 11 N5B 1 NSO2 12 STHI 9 SO2N 
