#	Name:			4crc_ligand
#	Creating user name:	suminyi
#	Creation time:		Sun Sep 30 06:51:10 2018

#	Modifying user name:	suminyi
#	Modification time:	Sun Sep 30 06:51:10 2018

@<TRIPOS>MOLECULE
4crc_ligand
   60    64     1     1     0
SMALL
MMFF94_CHARGES


@<TRIPOS>ATOM
      1 C24       -49.5510   -9.8880  -23.1720 C.2       1 MOL         0.6156 
      2 O25       -49.4920   -9.0100  -23.9990 O.2       1 MOL        -0.5700 
      3 C26       -48.6870   -9.8840  -21.9940 C.2       1 MOL        -0.1356 
      4 C27       -48.8620  -10.5290  -20.8370 C.2       1 MOL        -0.1784 
      5 C28       -48.0170  -10.3690  -19.6450 C.ar      1 MOL         0.0284 
      6 C29       -46.6280  -10.4090  -19.7880 C.ar      1 MOL        -0.1500 
      7 C30       -45.8000  -10.2190  -18.6870 C.ar      1 MOL         0.1770 
      8 C31       -46.3550   -9.8960  -17.4540 C.ar      1 MOL        -0.1500 
      9 C32       -47.7380   -9.8230  -17.3120 C.ar      1 MOL        -0.1500 
     10 C33       -48.5840  -10.0980  -18.3910 C.ar      1 MOL        -0.0230 
     11 N34       -49.9400  -10.0130  -18.2360 N.pl3     1 MOL         0.5926 
     12 C35       -50.5890  -10.7550  -17.3000 C.2       1 MOL         0.0365 
     13 N36       -51.8970  -10.5150  -17.4500 N.2       1 MOL        -0.3381 
     14 N37       -51.9920   -9.6370  -18.5160 N.2       1 MOL         0.0000 
     15 N38       -50.8080   -9.3180  -19.0070 N.2       1 MOL        -0.4180 
     16 Cl        -44.0860  -10.3810  -18.8570 Cl        1 MOL        -0.1770 
     17 N23       -50.3700  -10.9320  -23.3500 N.am      1 MOL        -0.7301 
     18 C8        -51.2250  -11.0590  -24.5490 C.3       1 MOL         0.3611 
     19 C9        -52.4210  -10.1100  -24.5270 C.2       1 MOL         0.5690 
     20 O10       -52.9710   -9.7780  -23.4940 O.2       1 MOL        -0.5700 
     21 C7        -51.6320  -12.5290  -24.8030 C.3       1 MOL         0.1435 
     22 C4        -52.1740  -12.8120  -26.2030 C.ar      1 MOL        -0.1435 
     23 C3        -53.2340  -13.7120  -26.3480 C.ar      1 MOL        -0.1500 
     24 C5        -51.5900  -12.2640  -27.3540 C.ar      1 MOL        -0.1500 
     25 C2        -53.7140  -14.0460  -27.6130 C.ar      1 MOL        -0.1500 
     26 C6        -52.0900  -12.5800  -28.6160 C.ar      1 MOL        -0.1500 
     27 C1        -53.1470  -13.4750  -28.7480 C.ar      1 MOL        -0.1500 
     28 N11       -52.7770   -9.6310  -25.7350 N.am      1 MOL        -0.5470 
     29 C12       -53.7240   -8.6220  -26.0690 C.ar      1 MOL         0.1170 
     30 C13       -53.5500   -7.9270  -27.2630 C.ar      1 MOL        -0.1500 
     31 C14       -54.4510   -6.9320  -27.6400 C.ar      1 MOL        -0.1500 
     32 C15       -55.5270   -6.6060  -26.8060 C.ar      1 MOL         0.0540 
     33 C16       -55.6960   -7.3100  -25.6090 C.ar      1 MOL        -0.1500 
     34 C17       -54.8150   -8.3250  -25.2580 C.ar      1 MOL        -0.1500 
     35 C18       -56.4570   -5.5590  -27.1670 C.2       1 MOL         0.4620 
     36 N19       -56.4990   -4.9450  -28.3520 N.2       1 MOL        -0.7068 
     37 N20       -57.5360   -4.1050  -28.1280 N.pl3     1 MOL         0.5660 
     38 N21       -58.0880   -4.1630  -26.8970 N.2       1 MOL        -0.4180 
     39 N22       -57.4030   -5.0980  -26.2760 N.2       1 MOL        -0.2272 
     40 H1        -47.8550   -9.1830  -22.0510 H         1 MOL         0.1500 
     41 H2        -49.7860  -11.0880  -20.6870 H         1 MOL         0.1500 
     42 H3        -46.1840  -10.6370  -20.7520 H         1 MOL         0.1500 
     43 H4        -45.7120   -9.6800  -16.6000 H         1 MOL         0.1500 
     44 H5        -48.1300   -9.5220  -16.3480 H         1 MOL         0.1500 
     45 H6        -50.1040  -11.3600  -16.5610 H         1 MOL         0.1500 
     46 H7        -50.3900  -11.6480  -22.6420 H         1 MOL         0.3700 
     47 H8        -50.6210  -10.7170  -25.3900 H         1 MOL         0.0000 
     48 H9        -52.3660  -12.8290  -24.0490 H         1 MOL         0.0000 
     49 H10       -50.7650  -13.1750  -24.6460 H         1 MOL         0.0000 
     50 H11       -53.6720  -14.1890  -25.4730 H         1 MOL         0.1500 
     51 H12       -50.7200  -11.6140  -27.3000 H         1 MOL         0.1500 
     52 H13       -54.5160  -14.7740  -27.7180 H         1 MOL         0.1500 
     53 H14       -51.6270  -12.1580  -29.5070 H         1 MOL         0.1500 
     54 H15       -53.5060  -13.7550  -29.7370 H         1 MOL         0.1500 
     55 H16       -52.2370   -9.9670  -26.5130 H         1 MOL         0.3700 
     56 H17       -52.6970   -8.1450  -27.9030 H         1 MOL         0.1500 
     57 H18       -54.2900   -6.3910  -28.5730 H         1 MOL         0.1500 
     58 H19       -56.5310   -7.0910  -24.9460 H         1 MOL         0.1500 
     59 H20       -54.9890   -8.8770  -24.3420 H         1 MOL         0.1500 
     60 H21       -57.8980   -3.4720  -28.8310 H         1 MOL         0.2700 
@<TRIPOS>BOND
     1    1    2 2    
     2    1    3 1    
     3    1   17 am   
     4    3    4 2    
     5    4    5 1    
     6    5    6 ar   
     7    5   10 ar   
     8    6    7 ar   
     9    7    8 ar   
    10    7   16 1    
    11    8    9 ar   
    12    9   10 ar   
    13   10   11 1    
    14   11   12 1    
    15   11   15 1    
    16   12   13 2    
    17   13   14 1    
    18   14   15 2    
    19   17   18 1    
    20   18   19 1    
    21   18   21 1    
    22   19   20 2    
    23   19   28 am   
    24   21   22 1    
    25   22   23 ar   
    26   22   24 ar   
    27   23   25 ar   
    28   24   26 ar   
    29   25   27 ar   
    30   26   27 ar   
    31   28   29 1    
    32   29   30 ar   
    33   29   34 ar   
    34   30   31 ar   
    35   31   32 ar   
    36   32   33 ar   
    37   32   35 1    
    38   33   34 ar   
    39   35   36 2    
    40   35   39 1    
    41   36   37 1    
    42   37   38 1    
    43   38   39 2    
    44    3   40 1    
    45    4   41 1    
    46    6   42 1    
    47    8   43 1    
    48    9   44 1    
    49   12   45 1    
    50   17   46 1    
    51   18   47 1    
    52   21   48 1    
    53   21   49 1    
    54   23   50 1    
    55   24   51 1    
    56   25   52 1    
    57   26   53 1    
    58   27   54 1    
    59   28   55 1    
    60   30   56 1    
    61   31   57 1    
    62   33   58 1    
    63   34   59 1    
    64   37   60 1    
@<TRIPOS>SUBSTRUCTURE
     1 MOL         1 PERM              0 ****  ****    0 ROOT 
@<TRIPOS>NORMAL
@<TRIPOS>ALT_TYPE
MMFF94_ALT_TYPE_SET 
MMFF94 18 CR 21 CR 12 C5A 35 C5B 5 CB 6 CB 7 CB 8 CB 9 CB 10 CB 22 CB \
23 CB 24 CB 25 CB 26 CB 27 CB 29 CB 30 CB 31 CB 32 CB \
33 CB 34 CB 1 C=ON 19 C=ON 3 C=C 4 C=C 40 HC 41 HC 42 HC \
43 HC 44 HC 45 HC 47 HC 48 HC 49 HC 50 HC 51 HC 52 HC \
53 HC 54 HC 56 HC 57 HC 58 HC 59 HC 60 HPYL 55 HNCC 46 HNCO \
2 O=CN 20 O=CN 11 NPYL 37 NPYL 15 N5A 36 N5A 38 N5A \
13 N5B 14 N5B 39 N5B 17 NC=O 28 NC=O 16 CL
