#	Name:			4j3l_ligand
#	Creating user name:	suminyi
#	Creation time:		Sun Sep 30 06:51:10 2018

#	Modifying user name:	suminyi
#	Modification time:	Sun Sep 30 06:51:10 2018

@<TRIPOS>MOLECULE
4j3l_ligand
   45    47     1     1     0
SMALL
MMFF94_CHARGES


@<TRIPOS>ATOM
      1 C4          2.7550  -10.3340   -1.6270 C.3       1 MOL         0.3001 
      2 C6          2.3860  -11.5930   -3.7420 C.2       1 MOL         0.5438 
      3 C8          2.5150  -11.5710   -5.2390 C.ar      1 MOL         0.0862 
      4 C10         3.2890  -10.5940   -7.3220 C.ar      1 MOL        -0.1500 
      5 C13         4.5040  -11.8720   -9.8950 C.ar      1 MOL        -0.1500 
      6 C15         3.8570  -12.0660  -12.2200 C.ar      1 MOL         0.0284 
      7 C17         5.5870  -12.3380  -14.2120 C.3       1 MOL         0.1382 
      8 C24         2.1640  -11.8880  -10.4760 C.ar      1 MOL        -0.1500 
      9 C1          6.4580  -10.2960   -0.9850 C.3       1 MOL         0.2800 
     10 O2          5.1620  -10.6330   -1.5230 O.3       1 MOL        -0.5600 
     11 C3          4.0840   -9.7660   -1.0980 C.3       1 MOL         0.2800 
     12 N5          2.7610  -10.4840   -3.0880 N.am      1 MOL        -0.7301 
     13 O7          1.9450  -12.5490   -3.1400 O.2       1 MOL        -0.5700 
     14 C9          3.1180  -10.5180   -5.9410 C.ar      1 MOL        -0.1500 
     15 C11         2.8280  -11.7080   -8.0390 C.ar      1 MOL         0.0000 
     16 C12         3.1590  -11.8230   -9.4950 C.ar      1 MOL         0.0000 
     17 C14         4.8450  -12.0020  -11.2410 C.ar      1 MOL        -0.1500 
     18 C16         4.2010  -12.2100  -13.6260 C.2       1 MOL        -0.1666 
     19 C18         3.1310  -12.2510  -14.4990 C.2       1 MOL        -0.1356 
     20 C19         1.7280  -12.2020  -14.0920 C.2       1 MOL         0.6156 
     21 O20         0.7830  -12.3670  -14.8220 O.2       1 MOL        -0.5700 
     22 N21         1.5160  -12.0470  -12.7920 N.am      1 MOL        -0.5470 
     23 C23         2.5250  -11.9910  -11.8150 C.ar      1 MOL         0.1170 
     24 C25         2.1390  -12.7180   -7.3410 C.ar      1 MOL         0.1770 
     25 Cl          1.4840  -14.1070   -8.1230 Cl        1 MOL        -0.1770 
     26 C27         2.0120  -12.6540   -5.9590 C.ar      1 MOL        -0.1500 
     27 H1          1.9360   -9.6650   -1.3480 H         1 MOL         0.0000 
     28 H2          2.5800  -11.3030   -1.1500 H         1 MOL         0.0000 
     29 H3          3.7900   -9.7840   -7.8460 H         1 MOL         0.1500 
     30 H4          5.2910  -11.8420   -9.1490 H         1 MOL         0.1500 
     31 H5          5.5950  -12.1420  -15.2880 H         1 MOL         0.0000 
     32 H6          5.9890  -13.3380  -14.0580 H         1 MOL         0.0000 
     33 H7          6.2800  -11.6330  -13.7540 H         1 MOL         0.0000 
     34 H8          1.1110  -11.8660  -10.2050 H         1 MOL         0.1500 
     35 H9          7.1820  -11.0420   -1.3230 H         1 MOL         0.0000 
     36 H10         6.4140  -10.3000    0.1080 H         1 MOL         0.0000 
     37 H11         6.7540   -9.3080   -1.3440 H         1 MOL         0.0000 
     38 H12         4.0560   -9.7270   -0.0060 H         1 MOL         0.0000 
     39 H13         4.2520   -8.7610   -1.4970 H         1 MOL         0.0000 
     40 H14         3.1140   -9.7230   -3.6350 H         1 MOL         0.3700 
     41 H15         3.4980   -9.6410   -5.4240 H         1 MOL         0.1500 
     42 H16         5.8900  -12.0670  -11.5230 H         1 MOL         0.1500 
     43 H17         3.2560  -12.3470  -15.5700 H         1 MOL         0.1500 
     44 H18         0.5570  -12.0580  -12.4810 H         1 MOL         0.3700 
     45 H19         1.5130  -13.4690   -5.4350 H         1 MOL         0.1500 
@<TRIPOS>BOND
     1    1   11 1    
     2   12    1 1    
     3    3    2 1    
     4    2   12 am   
     5    2   13 2    
     6   14    3 ar   
     7    3   26 ar   
     8    4   14 ar   
     9   15    4 ar   
    10   16    5 ar   
    11    5   17 ar   
    12   17    6 ar   
    13    6   18 1    
    14   23    6 ar   
    15   18    7 1    
    16   16    8 ar   
    17    8   23 ar   
    18   10    9 1    
    19   11   10 1    
    20   15   16 1    
    21   15   24 ar   
    22   18   19 2    
    23   19   20 1    
    24   20   21 2    
    25   20   22 am   
    26   22   23 1    
    27   24   25 1    
    28   24   26 ar   
    29    1   27 1    
    30    1   28 1    
    31    4   29 1    
    32    5   30 1    
    33    7   31 1    
    34    7   32 1    
    35    7   33 1    
    36    8   34 1    
    37    9   35 1    
    38    9   36 1    
    39    9   37 1    
    40   11   38 1    
    41   11   39 1    
    42   12   40 1    
    43   14   41 1    
    44   17   42 1    
    45   19   43 1    
    46   22   44 1    
    47   26   45 1    
@<TRIPOS>SUBSTRUCTURE
     1 MOL         1 PERM              0 ****  ****    0 ROOT 
@<TRIPOS>NORMAL
@<TRIPOS>ALT_TYPE
MMFF94_ALT_TYPE_SET 
MMFF94 1 CR 7 CR 9 CR 11 CR 3 CB 4 CB 5 CB 6 CB 8 CB 14 CB 15 CB 16 CB \
17 CB 23 CB 24 CB 26 CB 2 C=ON 20 C=ON 18 C=C 19 C=C \
27 HC 28 HC 29 HC 30 HC 31 HC 32 HC 33 HC 34 HC 35 HC \
36 HC 37 HC 38 HC 39 HC 41 HC 42 HC 43 HC 45 HC 44 HNCC \
40 HNCO 13 O=CN 21 O=CN 10 OR 12 NC=O 22 NC=O 25 CL \

