#	Name:			4rfm_ligand
#	Creating user name:	suminyi
#	Creation time:		Sun Sep 30 06:51:12 2018

#	Modifying user name:	suminyi
#	Modification time:	Sun Sep 30 06:51:12 2018

@<TRIPOS>MOLECULE
4rfm_ligand
   63    68     1     1     0
SMALL
MMFF94_CHARGES


@<TRIPOS>ATOM
      1 C1         13.5840    3.4820    5.8830 C.3       1 MOL         0.0950 
      2 C2         14.8780    3.0080    5.2340 C.3       1 MOL        -0.1900 
      3 C3         16.0530    3.9410    5.5450 C.3       1 MOL         0.2760 
      4 C4         17.3710    3.2760    5.8190 C.2       1 MOL         0.1078 
      5 N5         18.5350    3.8550    6.1680 N.2       1 MOL        -0.7068 
      6 N6         19.4240    2.8350    6.2980 N.pl3     1 MOL         0.2996 
      7 C7         18.8350    1.6130    6.0910 C.2       1 MOL        -0.2366 
      8 C8         19.5840    0.3510    6.1820 C.2       1 MOL         0.7150 
      9 O9         19.1550   -0.7390    5.8630 O.2       1 MOL        -0.5700 
     10 N10        20.8360    0.5400    6.6470 N.am      1 MOL        -0.4930 
     11 C11        21.9340   -0.2740    6.4640 C.2       1 MOL         0.0630 
     12 C12        22.0560   -1.4540    5.6880 C.2       1 MOL         0.1388 
     13 N13        23.3430   -1.8320    5.7170 N.2       1 MOL        -0.7068 
     14 N14        23.9600   -0.9550    6.5660 N.pl3     1 MOL         0.3140 
     15 C15        23.1330    0.0440    7.0030 C.2       1 MOL        -0.3016 
     16 C16        25.3700   -1.0740    6.9410 C.3       1 MOL         0.3991 
     17 C17        25.8410   -2.5430    7.1080 C.3       1 MOL         0.1052 
     18 C18        27.3710   -2.6170    7.3760 C.3       1 MOL         0.0000 
     19 C19        27.8720   -4.0640    7.5640 C.3       1 MOL         0.0000 
     20 C20        27.2330   -4.7420    8.7920 C.3       1 MOL         0.0000 
     21 C21        25.7050   -4.8660    8.6290 C.3       1 MOL         0.1052 
     22 S22        24.9270   -3.2980    8.4390 S.o2      1 MOL         1.0896 
     23 O23        25.1720   -2.5600    9.6390 O.2       1 MOL        -0.6500 
     24 O24        23.5890   -3.6580    8.0780 O.2       1 MOL        -0.6500 
     25 C25        26.2380   -0.2660    5.9750 C.ar      1 MOL        -0.1435 
     26 C26        27.1180    0.6950    6.4780 C.ar      1 MOL        -0.1500 
     27 C27        27.9140    1.4450    5.6110 C.ar      1 MOL        -0.1500 
     28 C28        27.8250    1.2460    4.2340 C.ar      1 MOL        -0.1500 
     29 C29        26.9440    0.2940    3.7260 C.ar      1 MOL        -0.1500 
     30 C30        26.1600   -0.4640    4.5930 C.ar      1 MOL        -0.1500 
     31 C31        17.5490    1.8740    5.7270 C.2       1 MOL        -0.1810 
     32 C32        16.4850    0.9010    5.3020 C.3       1 MOL         0.2760 
     33 C33        15.1110    1.5270    5.0920 C.3       1 MOL        -0.1950 
     34 C34        14.8000    2.3550    3.8800 C.3       1 MOL         0.4634 
     35 F35        15.7500    2.6050    2.9470 F         1 MOL        -0.2317 
     36 F36        13.6050    2.1730    3.2540 F         1 MOL        -0.2317 
     37 H1         13.7210    3.5850    6.9600 H         1 MOL         0.0000 
     38 H2         12.7670    2.7760    5.7100 H         1 MOL         0.0000 
     39 H3         13.2810    4.4500    5.4810 H         1 MOL         0.0000 
     40 H4         15.8220    4.5640    6.4070 H         1 MOL         0.0000 
     41 H5         16.1750    4.6260    4.7140 H         1 MOL         0.0000 
     42 H6         20.4070    3.0070    6.4860 H         1 MOL         0.2700 
     43 H7         21.0030    1.3840    7.1660 H         1 MOL         0.3700 
     44 H8         21.3270   -1.9970    5.1020 H         1 MOL         0.1500 
     45 H9         23.4790    0.8470    7.6440 H         1 MOL         0.1500 
     46 H10        25.4540   -0.6090    7.9290 H         1 MOL         0.0000 
     47 H11        25.5900   -3.1110    6.2130 H         1 MOL         0.0000 
     48 H12        27.6220   -2.0260    8.2630 H         1 MOL         0.0000 
     49 H13        27.9200   -2.1810    6.5360 H         1 MOL         0.0000 
     50 H14        28.9580   -4.0470    7.6930 H         1 MOL         0.0000 
     51 H15        27.6660   -4.6480    6.6640 H         1 MOL         0.0000 
     52 H16        27.4670   -4.1700    9.6950 H         1 MOL         0.0000 
     53 H17        27.6650   -5.7380    8.9210 H         1 MOL         0.0000 
     54 H18        25.2550   -5.3140    9.5160 H         1 MOL         0.0000 
     55 H19        25.4450   -5.4530    7.7480 H         1 MOL         0.0000 
     56 H20        27.1830    0.8620    7.5530 H         1 MOL         0.1500 
     57 H21        28.6040    2.1810    6.0150 H         1 MOL         0.1500 
     58 H22        28.4450    1.8290    3.5550 H         1 MOL         0.1500 
     59 H23        26.8670    0.1410    2.6520 H         1 MOL         0.1500 
     60 H24        25.4780   -1.2080    4.1870 H         1 MOL         0.1500 
     61 H25        16.3990    0.1200    6.0580 H         1 MOL         0.0000 
     62 H26        16.7980    0.3950    4.3870 H         1 MOL         0.0000 
     63 H27        14.3110    0.8820    5.4310 H         1 MOL         0.1000 
@<TRIPOS>BOND
     1    1    2 1    
     2    2    3 1    
     3    2   33 1    
     4    2   34 1    
     5    3    4 1    
     6    4    5 2    
     7    4   31 1    
     8    5    6 1    
     9    6    7 1    
    10    7    8 1    
    11    7   31 2    
    12    8    9 2    
    13    8   10 am   
    14   10   11 1    
    15   11   12 1    
    16   11   15 2    
    17   12   13 2    
    18   13   14 1    
    19   14   15 1    
    20   14   16 1    
    21   16   17 1    
    22   16   25 1    
    23   17   18 1    
    24   17   22 1    
    25   18   19 1    
    26   19   20 1    
    27   20   21 1    
    28   21   22 1    
    29   22   23 2    
    30   22   24 2    
    31   25   26 ar   
    32   25   30 ar   
    33   26   27 ar   
    34   27   28 ar   
    35   28   29 ar   
    36   29   30 ar   
    37   31   32 1    
    38   32   33 1    
    39   33   34 1    
    40   34   35 1    
    41   34   36 1    
    42    1   37 1    
    43    1   38 1    
    44    1   39 1    
    45    3   40 1    
    46    3   41 1    
    47    6   42 1    
    48   10   43 1    
    49   12   44 1    
    50   15   45 1    
    51   16   46 1    
    52   17   47 1    
    53   18   48 1    
    54   18   49 1    
    55   19   50 1    
    56   19   51 1    
    57   20   52 1    
    58   20   53 1    
    59   21   54 1    
    60   21   55 1    
    61   26   56 1    
    62   27   57 1    
    63   28   58 1    
    64   29   59 1    
    65   30   60 1    
    66   32   61 1    
    67   32   62 1    
    68   33   63 1    
@<TRIPOS>SUBSTRUCTURE
     1 MOL         1 PERM              0 ****  ****    0 ROOT 
@<TRIPOS>NORMAL
@<TRIPOS>ALT_TYPE
MMFF94_ALT_TYPE_SET 
MMFF94 2 CR3R 33 CR3R 34 CR3R 1 CR 3 CR 16 CR 17 CR 18 CR 19 CR 20 CR \
21 CR 32 CR 7 C5A 15 C5A 4 C5B 31 C5B 12 C5B 11 C5B 25 CB \
26 CB 27 CB 28 CB 29 CB 30 CB 8 C=ON 37 HC 38 HC 39 HC \
40 HC 41 HC 44 HC 45 HC 46 HC 47 HC 48 HC 49 HC 50 HC \
51 HC 52 HC 53 HC 54 HC 55 HC 56 HC 57 HC 58 HC 59 HC \
60 HC 61 HC 62 HC 63 HC 42 HPYL 43 HNCC 9 O=CN 23 O2S \
24 O2S 6 NPYL 14 NPYL 5 N5A 13 N5A 10 NC=O 22 SO2 35 F \
36 F 
