#	Name:			4eky_ligand
#	Creating user name:	suminyi
#	Creation time:		Sun Sep 30 06:51:02 2018

#	Modifying user name:	suminyi
#	Modification time:	Sun Sep 30 06:51:02 2018

@<TRIPOS>MOLECULE
4eky_ligand
   44    45     1     1     0
SMALL
MMFF94_CHARGES


@<TRIPOS>ATOM
      1 N1         33.9790   23.7280   29.0600 N.am      1 MOL        -0.4691 
      2 C2         33.2590   24.3790   30.0070 C.2       1 MOL         0.6900 
      3 O2         32.0440   24.3470   30.0510 O.2       1 MOL        -0.5700 
      4 N3         33.9260   25.0700   30.9080 N.am      1 MOL        -0.4900 
      5 C4         35.2330   25.1380   31.0850 C.2       1 MOL         0.6156 
      6 O4         35.6520   25.8510   31.9680 O.2       1 MOL        -0.5700 
      7 C5         36.0010   24.3230   30.1260 C.2       1 MOL         0.0794 
      8 C6         35.3780   23.6600   29.0890 C.2       1 MOL        -0.0410 
      9 C7         37.4170   24.2120   30.3160 C.1       1 MOL        -0.0650 
     10 C8         38.6120   24.0540   30.5280 C.1       1 MOL        -0.2000 
     11 C9         40.0450   23.7780   30.7550 C.3       1 MOL         0.2000 
     12 C1'        33.2160   23.0300   27.9990 C.3       1 MOL         0.5801 
     13 C10        40.3830   23.2830   32.1780 C.3       1 MOL         0.0000 
     14 C11        40.7900   24.3990   33.1440 C.3       1 MOL         0.0000 
     15 C2'        33.6420   23.2830   26.5320 C.3       1 MOL         0.2800 
     16 O2'        33.6160   24.6960   26.3060 O.3       1 MOL        -0.6800 
     17 C3'        32.6240   22.5840   25.5800 C.3       1 MOL         0.2800 
     18 O3'        33.0200   22.7310   24.2010 O.3       1 MOL        -0.6800 
     19 C4'        32.4980   21.0780   25.9430 C.3       1 MOL         0.2800 
     20 O4'        31.4060   20.4690   25.2330 O.3       1 MOL        -0.6800 
     21 C5'        32.2060   20.9030   27.4570 C.3       1 MOL         0.2800 
     22 O5'        33.1940   21.6070   28.2540 O.3       1 MOL        -0.5600 
     23 C6'        32.1200   19.4240   27.8930 C.3       1 MOL         0.2800 
     24 O6'        33.1850   18.6620   27.3350 O.3       1 MOL        -0.6800 
     25 H1         33.3540   25.6430   31.5180 H         1 MOL         0.3700 
     26 H2         35.8690   23.0780   28.3140 H         1 MOL         0.1500 
     27 H3         40.6420   24.6570   30.5030 H         1 MOL         0.0000 
     28 H4         40.3340   22.9830   30.0660 H         1 MOL         0.0000 
     29 H5         41.2530   22.6310   32.1060 H         1 MOL         0.0000 
     30 H6         32.1760   23.3810   28.0730 H         1 MOL         0.0000 
     31 H7         39.5610   22.6930   32.5890 H         1 MOL         0.0000 
     32 H8         41.0260   23.9800   34.1200 H         1 MOL         0.0000 
     33 H9         40.0160   25.1630   33.2380 H         1 MOL         0.0000 
     34 H10        41.7140   24.8470   32.8010 H         1 MOL         0.0000 
     35 H11        34.6470   22.8850   26.3620 H         1 MOL         0.0000 
     36 H12        34.2030   24.8740   25.5340 H         1 MOL         0.4000 
     37 H13        31.6430   23.0480   25.7130 H         1 MOL         0.0000 
     38 H14        32.7940   23.6780   23.8950 H         1 MOL         0.4000 
     39 H15        33.4390   20.5790   25.6880 H         1 MOL         0.0000 
     40 H16        31.5360   19.4900   25.3130 H         1 MOL         0.4000 
     41 H17        31.2350   21.3550   27.6690 H         1 MOL         0.0000 
     42 H18        31.1730   19.0050   27.5440 H         1 MOL         0.0000 
     43 H19        32.1460   19.3510   28.9800 H         1 MOL         0.0000 
     44 H20        34.0060   18.8040   27.9030 H         1 MOL         0.4000 
@<TRIPOS>BOND
     1    1    2 1    
     2    1    8 1    
     3    1   12 1    
     4    2    3 2    
     5    2    4 1    
     6    4    5 1    
     7    5    6 2    
     8    5    7 1    
     9    7    8 2    
    10    7    9 1    
    11    9   10 3    
    12   10   11 1    
    13   11   13 1    
    14   12   15 1    
    15   12   22 1    
    16   13   14 1    
    17   15   16 1    
    18   15   17 1    
    19   17   18 1    
    20   17   19 1    
    21   19   20 1    
    22   19   21 1    
    23   21   22 1    
    24   21   23 1    
    25   23   24 1    
    26    4   25 1    
    27    8   26 1    
    28   11   27 1    
    29   11   28 1    
    30   13   29 1    
    31   12   30 1    
    32   13   31 1    
    33   14   32 1    
    34   14   33 1    
    35   14   34 1    
    36   15   35 1    
    37   16   36 1    
    38   17   37 1    
    39   18   38 1    
    40   19   39 1    
    41   20   40 1    
    42   21   41 1    
    43   23   42 1    
    44   23   43 1    
    45   24   44 1    
@<TRIPOS>SUBSTRUCTURE
     1 MOL         1 PERM              0 ****  ****    0 ROOT 
@<TRIPOS>NORMAL
@<TRIPOS>ALT_TYPE
MMFF94_ALT_TYPE_SET 
MMFF94 11 CR 12 CR 13 CR 14 CR 15 CR 17 CR 19 CR 21 CR 23 CR 2 CONN \
5 C=ON 7 C=C 8 C=C 9 CSP 10 CSP 26 HC 27 HC 28 HC 30 HC \
29 HC 31 HC 32 HC 33 HC 34 HC 35 HC 37 HC 39 HC 41 HC \
42 HC 43 HC 25 HNCO 36 HOR 38 HOR 40 HOR 44 HOR 3 O=CN \
6 O=CN 16 OR 18 OR 20 OR 22 OR 24 OR 1 NC=O 4 NC=O 
