4eky_ligand

Created by X-TOOL on Fri Sep 26 17:34:54 2014
 44 45  0  0  0  0  0  0  0  0999 V2000
   34.0700   23.5550   28.8790  N 0  0  0  1  0  3
   33.3470   24.4250   29.7750  C 0  0  0  1  0  3
   32.1060   24.5280   29.7210  O 0  0  0  1  0  1
   34.0940   25.1710   30.7540  N 0  0  0  2  0  3
   35.5070   25.0420   30.8350  C 0  0  0  1  0  3
   36.1110   25.6820   31.6980  O 0  0  0  1  0  1
   36.2060   24.1880   29.9420  C 0  0  0  1  0  3
   35.4960   23.4670   28.9620  C 0  0  0  3  0  4
   37.5140   24.0310   30.0060  C 0  0  0  1  0  2
   38.8320   23.8610   30.0360  C 0  0  0  2  0  3
   39.6230   24.1000   31.1490  C 0  0  0  2  0  3
   33.3180   22.7990   27.8380  C 0  0  0  2  0  4
   40.1540   23.0990   31.9620  C 0  0  0  2  0  3
   41.1790   23.4410   32.8570  C 0  0  0  4  0  4
   33.7730   23.0840   26.3540  C 0  0  0  2  0  4
   33.9980   24.5050   26.1660  O 0  0  0  2  0  2
   32.7090   22.4520   25.3680  C 0  0  0  2  0  4
   33.0690   22.5010   23.9910  O 0  0  0  2  0  2
   32.3770   21.0130   25.8070  C 0  0  0  2  0  4
   31.2330   20.5270   25.0800  O 0  0  0  2  0  2
   32.1510   20.8630   27.3630  C 0  0  0  2  0  4
   33.2720   21.3920   28.0560  O 0  0  0  1  0  2
   32.1250   19.3740   27.8540  C 0  0  0  3  0  4
   33.1970   18.6010   27.2460  O 0  0  0  2  0  2
   33.6150   25.7846   31.3817  H 0  0  0  1  0  1
   35.8880   23.7926   27.9872  H 0  0  0  1  0  1
   35.7366   22.4050   29.1178  H 0  0  0  1  0  1
   39.3217   23.5116   29.1282  H 0  0  0  1  0  1
   39.8438   25.1352   31.4048  H 0  0  0  1  0  1
   32.2806   23.1568   27.9142  H 0  0  0  1  0  1
   39.7822   22.0771   31.9036  H 0  0  0  1  0  1
   41.4866   22.5479   33.4208  H 0  0  0  1  0  1
   40.8147   24.2083   33.5559  H 0  0  0  1  0  1
   42.0394   23.8348   32.2960  H 0  0  0  1  0  1
   34.7321   22.5745   26.1793  H 0  0  0  1  0  1
   34.2712   24.6655   25.2704  H 0  0  0  1  0  1
   31.7899   23.0475   25.4709  H 0  0  0  1  0  1
   32.3808   22.1035   23.4706  H 0  0  0  1  0  1
   33.2388   20.3830   25.5415  H 0  0  0  1  0  1
   31.4242   20.5339   24.1495  H 0  0  0  1  0  1
   31.2220   21.3798   27.6456  H 0  0  0  1  0  1
   31.1590   18.9233   27.5823  H 0  0  0  1  0  1
   32.2442   19.3545   28.9473  H 0  0  0  1  0  1
   34.0342   18.9836   27.4808  H 0  0  0  1  0  1
  1  2  1  0  0  1
  1  8  1  0  0  1
  1 12  1  0  0  2
  2  3  2  0  0  2
  2  4  1  0  0  1
  4  5  1  0  0  1
  5  6  2  0  0  2
  5  7  1  0  0  1
  7  8  1  0  0  1
  7  9  2  0  0  2
  9 10  2  0  0  2
 10 11  1  0  0  2
 11 13  2  0  0  2
 12 15  1  0  0  1
 12 22  1  0  0  1
 13 14  1  0  0  2
 15 16  1  0  0  2
 15 17  1  0  0  1
 17 18  1  0  0  2
 17 19  1  0  0  1
 19 20  1  0  0  2
 19 21  1  0  0  1
 21 22  1  0  0  1
 21 23  1  0  0  2
 23 24  1  0  0  2
  4 25  1  0  0  2
  8 26  1  0  0  2
  8 27  1  0  0  2
 10 28  1  0  0  2
 11 29  1  0  0  2
 12 30  1  0  0  2
 13 31  1  0  0  2
 14 32  1  0  0  2
 14 33  1  0  0  2
 14 34  1  0  0  2
 15 35  1  0  0  2
 16 36  1  0  0  2
 17 37  1  0  0  2
 18 38  1  0  0  2
 19 39  1  0  0  2
 20 40  1  0  0  2
 21 41  1  0  0  2
 23 42  1  0  0  2
 23 43  1  0  0  2
 24 44  1  0  0  2
M  END
> <MOLECULAR_FORMULA>
C15H20N2O7

> <MOLECULAR_WEIGHT>
340.2

> <NUM_HB_ATOMS>
8  

> <NUM_ROTOR>
2  

> <XLOGP2>
0.04 

$$$$
