#	Name:			4eky_ligand
#	Creating user name:	suminyi
#	Creation time:		Sun Sep 30 06:48:53 2018

#	Modifying user name:	suminyi
#	Modification time:	Sun Sep 30 06:48:53 2018

@<TRIPOS>MOLECULE
4eky_ligand
   44    45     1     5     4
NUCLEIC_ACID
MMFF94_CHARGES


@<TRIPOS>ATOM
      1 N1         34.0700   23.5550   28.8790 N.am      1 D1J        -0.4691 
      2 C2         33.3470   24.4250   29.7750 C.2       1 D1J         0.6900 
      3 O2         32.1060   24.5280   29.7210 O.2       1 D1J        -0.5700 
      4 N3         34.0940   25.1710   30.7540 N.am      1 D1J        -0.4900 
      5 C4         35.5070   25.0420   30.8350 C.2       1 D1J         0.6156 
      6 O4         36.1110   25.6820   31.6980 O.2       1 D1J        -0.5700 
      7 C5         36.2060   24.1880   29.9420 C.2       1 D1J         0.0794 
      8 C6         35.4960   23.4670   28.9620 C.2       1 D1J        -0.0410 
      9 C7         37.5140   24.0310   30.0060 C.1       1 D1J        -0.0650 
     10 C8         38.8320   23.8610   30.0360 C.1       1 D1J        -0.2000 
     11 C9         40.2065   23.6837   30.0673 C.3       1 D1J         0.2000 
     12 C1'        33.3180   22.7990   27.8380 C.3       1 D1J         0.5801 
     13 C10        40.8810   22.9637   31.0529 C.3       1 D1J         0.0000 
     14 C11        41.0145   23.5396   32.3253 C.3       1 D1J         0.0000 
     15 C2'        33.7730   23.0840   26.3540 C.3       1 D1J         0.2800 
     16 O2'        33.9980   24.5050   26.1660 O.3       1 D1J        -0.6800 
     17 C3'        32.7090   22.4520   25.3680 C.3       1 D1J         0.2800 
     18 O3'        33.0690   22.5010   23.9910 O.3       1 D1J        -0.6800 
     19 C4'        32.3770   21.0130   25.8070 C.3       1 D1J         0.2800 
     20 O4'        31.2330   20.5270   25.0800 O.3       1 D1J        -0.6800 
     21 C5'        32.1510   20.8630   27.3630 C.3       1 D1J         0.2800 
     22 O5'        33.2720   21.3920   28.0560 O.3       1 D1J        -0.5600 
     23 C6'        32.1250   19.3740   27.8540 C.3       1 D1J         0.2800 
     24 O6'        33.1970   18.6010   27.2460 O.3       1 D1J        -0.6800 
     25 H1         33.6150   25.7846   31.3817 H         1 D1J         0.3700 
     26 H2         36.0383   22.8356   28.2597 H         1 D1J         0.1500 
     27 H3         40.6364   24.6959   30.0919 H         1 D1J         0.0000 
     28 H4         40.4655   23.1983   29.1148 H         1 D1J         0.0000 
     29 H5         41.8958   22.7684   30.6761 H         1 D1J         0.0000 
     30 H6         32.2806   23.1568   27.9142 H         1 D1J         0.0000 
     31 H7         40.3478   22.0102   31.1817 H         1 D1J         0.0000 
     32 H8         41.5662   22.8518   32.9830 H         1 D1J         0.0000 
     33 H9         40.0170   23.7302   32.7480 H         1 D1J         0.0000 
     34 H10        41.5650   24.4883   32.2425 H         1 D1J         0.0000 
     35 H11        34.7321   22.5745   26.1793 H         1 D1J         0.0000 
     36 H12        34.2712   24.6655   25.2704 H         1 D1J         0.4000 
     37 H13        31.7899   23.0475   25.4709 H         1 D1J         0.0000 
     38 H14        32.3808   22.1035   23.4706 H         1 D1J         0.4000 
     39 H15        33.2388   20.3830   25.5415 H         1 D1J         0.0000 
     40 H16        31.4242   20.5339   24.1495 H         1 D1J         0.4000 
     41 H17        31.2220   21.3798   27.6456 H         1 D1J         0.0000 
     42 H18        31.1590   18.9233   27.5823 H         1 D1J         0.0000 
     43 H19        32.2442   19.3545   28.9473 H         1 D1J         0.0000 
     44 H20        34.0342   18.9836   27.4808 H         1 D1J         0.4000 
@<TRIPOS>BOND
     1    1    2 1    
     2    1    8 1    
     3    1   12 1    
     4    2    3 2    
     5    2    4 1    
     6    4    5 1    
     7    5    6 2    
     8    5    7 1    
     9    7    8 2    
    10    7    9 1    
    11    9   10 3    
    12   10   11 1    
    13   11   13 1    
    14   12   15 1    
    15   12   22 1    
    16   13   14 1    
    17   15   16 1    
    18   15   17 1    
    19   17   18 1    
    20   17   19 1    
    21   19   20 1    
    22   19   21 1    
    23   21   22 1    
    24   21   23 1    
    25   23   24 1    
    26    4   25 1    
    27    8   26 1    
    28   11   27 1    
    29   11   28 1    
    30   13   29 1    
    31   12   30 1    
    32   13   31 1    
    33   14   32 1    
    34   14   33 1    
    35   14   34 1    
    36   15   35 1    
    37   16   36 1    
    38   17   37 1    
    39   18   38 1    
    40   19   39 1    
    41   20   40 1    
    42   21   41 1    
    43   23   42 1    
    44   23   43 1    
    45   24   44 1    
@<TRIPOS>SUBSTRUCTURE
     1 D1J         1 RESIDUE           1 ****  D       0 ROOT 
@<TRIPOS>SET
UNNAMED29       STATIC     ATOMS    <user>   **** 
22 12 15 16 17 18 19 20 21 22 23 24 30 35 36 37 38 39 40 41 \
 42 43 44
UNNAMED30       STATIC     ATOMS    <user>   **** 
22 1 2 3 4 5 6 7 8 9 10 11 13 14 25 26 0 0 0 0 \
 0 0 0
UNNAMED31       STATIC     ATOMS    <user>   **** 
22 12 15 16 17 18 19 20 21 22 23 24 30 35 36 37 38 39 40 41 \
 42 43 44
UNNAMED32       STATIC     ATOMS    <user>   **** 
1 1
@<TRIPOS>ROTATABLE_BOND
   11    10    12  1 1     0  0
   12    11    13  2 1     0  0
   13    12    16  3 1     0  0
@<TRIPOS>ANCHOR_ATOM
9
@<TRIPOS>NORMAL
@<TRIPOS>ALT_TYPE
MMFF94_ALT_TYPE_SET 
MMFF94 11 CR 12 CR 13 CR 14 CR 15 CR 17 CR 19 CR 21 CR 23 CR 2 CONN \
5 C=ON 7 C=C 8 C=C 9 CSP 10 CSP 26 HC 27 HC 28 HC 30 HC \
29 HC 31 HC 32 HC 33 HC 34 HC 35 HC 37 HC 39 HC 41 HC \
42 HC 43 HC 25 HNCO 36 HOR 38 HOR 40 HOR 44 HOR 3 O=CN \
6 O=CN 16 OR 18 OR 20 OR 22 OR 24 OR 1 NC=O 4 NC=O 
