#	Name:			3jvs_ligand
#	Creating user name:	suminyi
#	Creation time:		Sun Sep 30 06:50:57 2018

#	Modifying user name:	suminyi
#	Modification time:	Sun Sep 30 06:50:57 2018

@<TRIPOS>MOLECULE
3jvs_ligand
   52    54     1     1     0
SMALL
MMFF94_CHARGES


@<TRIPOS>ATOM
      1 C1         33.8080   -2.1760   17.6120 C.ar      1 MOL         0.0000 
      2 N1         31.3320   -2.4400   17.7470 N.am      1 MOL        -0.5470 
      3 O1         31.2780   -3.6020   15.8230 O.2       1 MOL        -0.5700 
      4 C2         32.5080   -1.6460   17.5600 C.ar      1 MOL         0.1170 
      5 N2         29.6560   -3.9380   17.3110 N.am      1 MOL        -0.4300 
      6 O2         30.7180   -4.8280   19.6920 O.2       1 MOL        -0.5700 
      7 C3         34.9100   -1.3140   17.4780 C.ar      1 MOL         0.0000 
      8 N3         29.0520   -3.8310   18.5910 N.am      1 MOL        -0.4300 
      9 O3         24.7480   -4.7210   22.7290 O.2       1 MOL        -0.5200 
     10 C4         34.0400   -3.5370   17.8440 C.ar      1 MOL        -0.1500 
     11 N4         25.4100   -3.7690   22.3530 N.2       1 MOL         0.9070 
     12 O4         24.9530   -2.6910   22.0210 O.3       1 MOL        -0.5200 
     13 C5         32.3350   -0.2710   17.4140 C.ar      1 MOL        -0.1500 
     14 C6         34.7160    0.0550   17.2960 C.ar      1 MOL        -0.1500 
     15 C7         36.2110   -1.8080   17.5830 C.ar      1 MOL        -0.1500 
     16 C8         35.3420   -4.0240   17.9590 C.ar      1 MOL        -0.1500 
     17 C9         33.4280    0.5780   17.2730 C.ar      1 MOL        -0.1500 
     18 C10        30.7860   -3.3230   16.8940 C.2       1 MOL         0.6900 
     19 C11        36.4270   -3.1590   17.8340 C.ar      1 MOL        -0.1500 
     20 C12        29.6210   -4.2990   19.7240 C.2       1 MOL         0.5438 
     21 C13        28.8810   -4.1170   21.0230 C.ar      1 MOL         0.0862 
     22 C14        27.5050   -3.9150   21.1240 C.ar      1 MOL        -0.1500 
     23 C15        29.6120   -4.1900   22.1970 C.ar      1 MOL        -0.1500 
     24 C16        26.8740   -3.8800   22.3760 C.ar      1 MOL         0.1330 
     25 C17        29.0050   -4.1300   23.4370 C.ar      1 MOL        -0.1500 
     26 C18        27.6200   -3.9800   23.5720 C.ar      1 MOL        -0.1435 
     27 C19        27.0170   -4.0240   25.0020 C.3       1 MOL         0.1435 
     28 C20        28.0080   -3.4520   26.0490 C.3       1 MOL         0.0000 
     29 C21        25.7250   -3.1850   25.2000 C.3       1 MOL         0.0000 
     30 C22        26.7460   -5.5130   25.3400 C.3       1 MOL         0.0000 
     31 H1         30.8210   -2.2850   18.6040 H         1 MOL         0.3700 
     32 H2         29.2250   -4.5710   16.6540 H         1 MOL         0.3700 
     33 H3         28.2180   -3.2510   18.6630 H         1 MOL         0.3700 
     34 H4         33.2050   -4.2230   17.9680 H         1 MOL         0.1500 
     35 H5         31.3360    0.1450   17.4200 H         1 MOL         0.1500 
     36 H6         35.5710    0.7240   17.2330 H         1 MOL         0.1500 
     37 H7         37.0600   -1.1280   17.5340 H         1 MOL         0.1500 
     38 H8         35.5090   -5.0750   18.1760 H         1 MOL         0.1500 
     39 H9         33.2750    1.6510   17.1810 H         1 MOL         0.1500 
     40 H10        37.4430   -3.5250   17.9660 H         1 MOL         0.1500 
     41 H11        26.8970   -3.8670   20.2230 H         1 MOL         0.1500 
     42 H12        30.6850   -4.2400   22.1480 H         1 MOL         0.1500 
     43 H13        29.6630   -4.2220   24.2920 H         1 MOL         0.1500 
     44 H14        27.5410   -3.3350   27.0260 H         1 MOL         0.0000 
     45 H15        28.3730   -2.4700   25.7340 H         1 MOL         0.0000 
     46 H16        28.8590   -4.1170   26.1930 H         1 MOL         0.0000 
     47 H17        24.8340   -3.7440   24.9230 H         1 MOL         0.0000 
     48 H18        25.7700   -2.2660   24.6130 H         1 MOL         0.0000 
     49 H19        25.5740   -2.9050   26.2410 H         1 MOL         0.0000 
     50 H20        27.6580   -6.1040   25.2230 H         1 MOL         0.0000 
     51 H21        25.9940   -5.9350   24.6710 H         1 MOL         0.0000 
     52 H22        26.3970   -5.6500   26.3600 H         1 MOL         0.0000 
@<TRIPOS>BOND
     1    4    1 ar   
     2    1    7 ar   
     3    1   10 ar   
     4    2    4 1    
     5   18    2 am   
     6   18    3 2    
     7    4   13 ar   
     8    8    5 1    
     9    5   18 am   
    10   20    6 2    
    11    7   14 ar   
    12    7   15 ar   
    13   20    8 am   
    14   11    9 2    
    15   10   16 ar   
    16   11   12 2    
    17   24   11 1    
    18   13   17 ar   
    19   17   14 ar   
    20   15   19 ar   
    21   16   19 ar   
    22   21   20 1    
    23   22   21 ar   
    24   21   23 ar   
    25   22   24 ar   
    26   23   25 ar   
    27   24   26 ar   
    28   25   26 ar   
    29   26   27 1    
    30   27   28 1    
    31   27   29 1    
    32   27   30 1    
    33    2   31 1    
    34    5   32 1    
    35    8   33 1    
    36   10   34 1    
    37   13   35 1    
    38   14   36 1    
    39   15   37 1    
    40   16   38 1    
    41   17   39 1    
    42   19   40 1    
    43   22   41 1    
    44   23   42 1    
    45   25   43 1    
    46   28   44 1    
    47   28   45 1    
    48   28   46 1    
    49   29   47 1    
    50   29   48 1    
    51   29   49 1    
    52   30   50 1    
    53   30   51 1    
    54   30   52 1    
@<TRIPOS>SUBSTRUCTURE
     1 MOL         1 PERM              0 ****  ****    0 ROOT 
@<TRIPOS>NORMAL
@<TRIPOS>ALT_TYPE
MMFF94_ALT_TYPE_SET 
MMFF94 27 CR 28 CR 29 CR 30 CR 1 CB 4 CB 7 CB 10 CB 13 CB 14 CB 15 CB \
16 CB 17 CB 19 CB 21 CB 22 CB 23 CB 24 CB 25 CB 26 CB \
18 CONN 20 C=ON 34 HC 35 HC 36 HC 37 HC 38 HC 39 HC 40 HC \
41 HC 42 HC 43 HC 44 HC 45 HC 46 HC 47 HC 48 HC 49 HC \
50 HC 51 HC 52 HC 31 HNCC 32 HNCO 33 HNCO 3 O=CN 6 O=CN \
9 O2N 12 O2N 11 NO2 2 NC=O 5 NC=O 8 NC=O 
