#	Name:			1nc3_ligand
#	Creating user name:	suminyi
#	Creation time:		Sun Sep 30 06:48:38 2018

#	Modifying user name:	suminyi
#	Modification time:	Sun Sep 30 06:48:38 2018

@<TRIPOS>MOLECULE
1nc3_ligand
   32    34     1     1     0
SMALL
MMFF94_CHARGES


@<TRIPOS>ATOM
      1 N1         52.3740   40.6340   19.8220 N.ar      1 FMC        -0.6200 
      2 C2         53.0720   40.6730   20.9860 C.ar      1 FMC         0.4700 
      3 N3         54.3790   40.3340   21.1230 N.ar      1 FMC        -0.5660 
      4 C4         55.0130   39.9130   19.8950 C.ar      1 FMC         0.2560 
      5 C5         54.3400   39.8570   18.6580 C.ar      1 FMC        -0.1516 
      6 C6         52.9360   40.2410   18.6320 C.ar      1 FMC         0.4100 
      7 N6         52.2010   40.2190   17.5170 N.pl3     1 FMC        -0.9000 
      8 N7         55.2300   39.4200   17.7150 N.pl3     1 FMC         0.2996 
      9 N8         56.4730   39.1840   18.3130 N.2       1 FMC        -0.7068 
     10 C9         56.3660   39.4700   19.6300 C.2       1 FMC         0.1078 
     11 C1'        57.5470   39.3160   20.6570 C.3       1 FMC         0.4610 
     12 C2'        57.4800   39.8800   22.1080 C.3       1 FMC         0.2800 
     13 O2'        58.3590   40.9120   22.4350 O.3       1 FMC        -0.6800 
     14 C3'        57.6840   38.6880   23.0240 C.3       1 FMC         0.2800 
     15 O3'        59.0470   38.8150   23.5100 O.3       1 FMC        -0.6800 
     16 C4'        57.4340   37.3850   22.2040 C.3       1 FMC         0.2800 
     17 O4'        57.7800   37.8870   20.8390 O.3       1 FMC        -0.5600 
     18 C5'        55.9500   36.8440   22.2000 C.3       1 FMC         0.2800 
     19 O5'        55.4460   36.3460   23.4370 O.3       1 FMC        -0.6800 
     20 H1         52.5445   41.0002   21.8747 H         1 FMC         0.1500 
     21 H2         52.6254   39.9238   16.6261 H         1 FMC         0.4000 
     22 H3         51.2098   40.4973   17.5480 H         1 FMC         0.4000 
     23 H4         55.0173   39.2852   16.7163 H         1 FMC         0.2700 
     24 H5         58.4246   39.7781   20.1813 H         1 FMC         0.0000 
     25 H6         56.4647   40.2745   22.2616 H         1 FMC         0.0000 
     26 H7         59.2534   40.6128   22.3207 H         1 FMC         0.4000 
     27 H8         56.9824   38.7208   23.8705 H         1 FMC         0.0000 
     28 H9         59.1400   39.6367   23.9776 H         1 FMC         0.4000 
     29 H10        58.1065   36.5798   22.5348 H         1 FMC         0.0000 
     30 H11        55.8950   36.0275   21.4650 H         1 FMC         0.0000 
     31 H12        55.2956   37.6688   21.8815 H         1 FMC         0.0000 
     32 H13        54.5514   36.0498   23.3169 H         1 FMC         0.4000 
@<TRIPOS>BOND
     1    1    2 ar   
     2    1    6 ar   
     3    2    3 ar   
     4    3    4 ar   
     5    4    5 ar   
     6    4   10 1    
     7    5    6 ar   
     8    5    8 1    
     9    6    7 1    
    10    8    9 1    
    11    9   10 2    
    12   10   11 1    
    13   11   12 1    
    14   11   17 1    
    15   12   13 1    
    16   12   14 1    
    17   14   15 1    
    18   14   16 1    
    19   16   17 1    
    20   16   18 1    
    21   18   19 1    
    22    2   20 1    
    23    7   21 1    
    24    7   22 1    
    25    8   23 1    
    26   11   24 1    
    27   12   25 1    
    28   13   26 1    
    29   14   27 1    
    30   15   28 1    
    31   16   29 1    
    32   18   30 1    
    33   18   31 1    
    34   19   32 1    
@<TRIPOS>SUBSTRUCTURE
     1 FMC         1 PERM              0 ****  ****    0 ROOT 
@<TRIPOS>NORMAL
@<TRIPOS>ALT_TYPE
MMFF94_ALT_TYPE_SET 
MMFF94 11 CR 12 CR 14 CR 16 CR 18 CR 5 C5A 10 C5B 4 C5B 2 CB 6 CB 20 HC \
24 HC 25 HC 27 HC 29 HC 30 HC 31 HC 23 HPYL 21 HNCC 22 HNCC \
26 HOR 28 HOR 32 HOR 13 OR 15 OR 17 OR 19 OR 1 NPYD \
3 NPYD 8 NPYL 9 N5A 7 NC=N 
