#	Name:			1nc3_ligand
#	Creating user name:	suminyi
#	Creation time:		Sun Sep 30 06:51:08 2018

#	Modifying user name:	suminyi
#	Modification time:	Sun Sep 30 06:51:08 2018

@<TRIPOS>MOLECULE
1nc3_ligand
   32    34     1     1     0
SMALL
MMFF94_CHARGES


@<TRIPOS>ATOM
      1 N1         52.5470   40.7400   19.8470 N.ar      1 MOL        -0.6200 
      2 C2         53.2830   40.7200   20.9800 C.ar      1 MOL         0.4700 
      3 N3         54.5520   40.2810   21.1170 N.ar      1 MOL        -0.5660 
      4 C4         55.1350   39.8800   19.9800 C.ar      1 MOL         0.2560 
      5 C5         54.4890   39.8900   18.7980 C.ar      1 MOL        -0.1516 
      6 C6         53.1800   40.3140   18.7520 C.ar      1 MOL         0.4100 
      7 N6         52.4220   40.3210   17.6550 N.pl3     1 MOL        -0.9000 
      8 N7         55.3000   39.3610   17.8580 N.pl3     1 MOL         0.2996 
      9 N8         56.5220   39.0460   18.4030 N.2       1 MOL        -0.7068 
     10 C9         56.4480   39.3610   19.7260 C.2       1 MOL         0.1078 
     11 C1'        57.5930   39.0840   20.7030 C.3       1 MOL         0.4610 
     12 C2'        57.4980   39.6720   22.1400 C.3       1 MOL         0.2800 
     13 O2'        58.4750   40.7100   22.3300 O.3       1 MOL        -0.6800 
     14 C3'        57.7440   38.4880   23.1010 C.3       1 MOL         0.2800 
     15 O3'        59.0910   38.4740   23.6120 O.3       1 MOL        -0.6800 
     16 C4'        57.5040   37.2400   22.2360 C.3       1 MOL         0.2800 
     17 O4'        57.8220   37.6590   20.8890 O.3       1 MOL        -0.5600 
     18 C5'        56.0350   36.7740   22.2760 C.3       1 MOL         0.2800 
     19 O5'        55.7320   36.1910   23.5500 O.3       1 MOL        -0.6800 
     20 H1         52.7950   41.0750   21.8830 H         1 MOL         0.1500 
     21 H2         52.8210   39.9220   16.7960 H         1 MOL         0.4000 
     22 H3         51.4550   40.1040   17.8380 H         1 MOL         0.4000 
     23 H4         55.0670   39.1040   16.8810 H         1 MOL         0.2700 
     24 H5         58.5080   39.4800   20.2580 H         1 MOL         0.0000 
     25 H6         56.5120   40.0650   22.3590 H         1 MOL         0.0000 
     26 H7         58.9890   40.5520   23.1820 H         1 MOL         0.4000 
     27 H8         57.0350   38.5180   23.9330 H         1 MOL         0.0000 
     28 H9         59.0860   39.0160   24.4700 H         1 MOL         0.4000 
     29 H10        58.1620   36.4190   22.5330 H         1 MOL         0.0000 
     30 H11        55.8710   36.0310   21.4890 H         1 MOL         0.0000 
     31 H12        55.3760   37.6280   22.0990 H         1 MOL         0.0000 
     32 H13        54.7740   36.0090   23.5680 H         1 MOL         0.4000 
@<TRIPOS>BOND
     1    1    2 ar   
     2    1    6 ar   
     3    2    3 ar   
     4    3    4 ar   
     5    4    5 ar   
     6    4   10 1    
     7    5    6 ar   
     8    5    8 1    
     9    6    7 1    
    10    8    9 1    
    11    9   10 2    
    12   10   11 1    
    13   11   12 1    
    14   11   17 1    
    15   12   13 1    
    16   12   14 1    
    17   14   15 1    
    18   14   16 1    
    19   16   17 1    
    20   16   18 1    
    21   18   19 1    
    22    2   20 1    
    23    7   21 1    
    24    7   22 1    
    25    8   23 1    
    26   11   24 1    
    27   12   25 1    
    28   13   26 1    
    29   14   27 1    
    30   15   28 1    
    31   16   29 1    
    32   18   30 1    
    33   18   31 1    
    34   19   32 1    
@<TRIPOS>SUBSTRUCTURE
     1 MOL         1 PERM              0 ****  ****    0 ROOT 
@<TRIPOS>NORMAL
@<TRIPOS>ALT_TYPE
MMFF94_ALT_TYPE_SET 
MMFF94 11 CR 12 CR 14 CR 16 CR 18 CR 5 C5A 10 C5B 4 C5B 2 CB 6 CB 20 HC \
24 HC 25 HC 27 HC 29 HC 30 HC 31 HC 23 HPYL 21 HNCC 22 HNCC \
26 HOR 28 HOR 32 HOR 13 OR 15 OR 17 OR 19 OR 1 NPYD \
3 NPYD 8 NPYL 9 N5A 7 NC=N 
