3dxg_ligand

Created by X-TOOL on Fri Sep 26 17:34:45 2014
 32 33  0  0  0  0  0  0  0  0999 V2000
   36.4310   -2.0220   12.0930  N 0  0  0  1  0  3
   35.2270   -2.2090   11.4130  C 0  0  0  1  0  3
   34.5610   -3.3480   11.5830  N 0  0  0  2  0  3
   35.0030   -4.3250   12.4040  C 0  0  0  1  0  3
   36.2070   -4.1680   13.0920  C 0  0  0  2  0  3
   36.9110   -2.9820   12.9070  C 0  0  0  2  0  3
   34.7830   -1.3140   10.6750  O 0  0  0  1  0  1
   34.3250   -5.3690   12.5290  O 0  0  0  1  0  1
   37.1410   -0.7760   11.8600  C 0  0  0  2  0  4
   36.7510    0.2970   12.8470  C 0  0  0  2  0  4
   36.6010    1.4830   12.0570  O 0  0  0  2  0  2
   37.9640    0.3940   13.7420  C 0  0  0  2  0  4
   39.1090    0.0400   12.8080  C 0  0  0  2  0  4
   38.1200    1.6790   14.3480  O 0  0  0  2  0  2
   38.5510   -0.9850   11.9760  O 0  0  0  1  0  2
   40.3430   -0.4530   13.5540  C 0  0  0  3  0  4
   40.0240   -1.7430   14.0570  O 0  0  0  1  0  2
   41.0170   -2.5700   15.0150  P 0  0  0  1  0  4
   41.4160   -1.5950   16.1050  O 0  0  0  1  0  1
   42.1530   -2.9990   14.1100  O 0  0  0  1  0  1
   40.1370   -3.7160   15.4570  O 0  0  0  1  0  1
   33.7041   -3.4854   11.0861  H 0  0  0  1  0  1
   36.5833   -4.9481   13.7521  H 0  0  0  1  0  1
   37.8571   -2.8288   13.4241  H 0  0  0  1  0  1
   36.9071   -0.4269   10.8434  H 0  0  0  1  0  1
   35.8363    0.0624   13.4111  H 0  0  0  1  0  1
   36.3532    2.2075   12.6193  H 0  0  0  1  0  1
   37.8932   -0.3524   14.5469  H 0  0  0  1  0  1
   39.3907    0.9146   12.2033  H 0  0  0  1  0  1
   38.1592    2.3444   13.6712  H 0  0  0  1  0  1
   40.5832    0.2290   14.3830  H 0  0  0  1  0  1
   41.2015   -0.5143   12.8690  H 0  0  0  1  0  1
  1  2  1  0  0  1
  1  6  1  0  0  1
  1  9  1  0  0  2
  2  3  1  0  0  1
  2  7  2  0  0  2
  3  4  1  0  0  1
  4  5  1  0  0  1
  4  8  2  0  0  2
  5  6  2  0  0  1
  9 10  1  0  0  1
  9 15  1  0  0  1
 10 11  1  0  0  2
 10 12  1  0  0  1
 12 13  1  0  0  1
 12 14  1  0  0  2
 13 15  1  0  0  1
 13 16  1  0  0  2
 16 17  1  0  0  2
 17 18  1  0  0  2
 18 19  2  0  0  2
 18 20  2  0  0  2
 18 21  2  0  0  2
  3 22  1  0  0  2
  5 23  1  0  0  2
  6 24  1  0  0  2
  9 25  1  0  0  2
 10 26  1  0  0  2
 11 27  1  0  0  2
 12 28  1  0  0  2
 13 29  1  0  0  2
 14 30  1  0  0  2
 16 31  1  0  0  2
 16 32  1  0  0  2
M  END
> <MOLECULAR_FORMULA>
C9H11N2O9P

> <MOLECULAR_WEIGHT>
322.1

> <NUM_HB_ATOMS>
10 

> <NUM_ROTOR>
3  

> <XLOGP2>
-3.05

$$$$
