#	Name:			3dxg
#	Creating user name:	suminyi
#	Creation time:		Sun Sep 30 06:51:03 2018

#	Modifying user name:	suminyi
#	Modification time:	Sun Sep 30 06:51:03 2018

@<TRIPOS>MOLECULE
3dxg
   32    33     1     1     0
SMALL
MMFF94_CHARGES


@<TRIPOS>ATOM
      1 N1         36.6150   -1.8270   12.0160 N.am      1 MOL        -0.4691 
      2 C2         35.3910   -2.0810   11.5060 C.2       1 MOL         0.6900 
      3 N3         34.7960   -3.2140   11.8420 N.am      1 MOL        -0.4900 
      4 C4         35.2320   -4.1280   12.6910 C.2       1 MOL         0.6156 
      5 C5         36.5750   -3.8650   13.1730 C.2       1 MOL        -0.1356 
      6 C6         37.2950   -2.7530   12.8110 C.2       1 MOL        -0.0410 
      7 O2         34.8140   -1.3190   10.7660 O.2       1 MOL        -0.5700 
      8 O4         34.5530   -5.0890   12.9810 O.2       1 MOL        -0.5700 
      9 C1'        37.1950   -0.4940   11.7240 C.3       1 MOL         0.5801 
     10 C2'        36.8300    0.5670   12.7920 C.3       1 MOL         0.2800 
     11 O2'        36.6970    1.9020   12.2670 O.3       1 MOL        -0.6800 
     12 C3'        38.0540    0.6010   13.7220 C.3       1 MOL         0.2800 
     13 C4'        39.2260    0.2300   12.7890 C.3       1 MOL         0.2800 
     14 O3'        38.2530    1.9330   14.2740 O.3       1 MOL        -0.6800 
     15 O4'        38.6460   -0.5470   11.7080 O.3       1 MOL        -0.5600 
     16 C5'        40.3810   -0.5420   13.4690 C.3       1 MOL         0.2800 
     17 O5'        39.8320   -1.5020   14.3800 O.3       1 MOL        -0.5512 
     18 P          40.6690   -2.8080   14.7270 P.3       1 MOL         1.3712 
     19 O1P        41.4920   -2.5270   15.9130 O.co2     1 MOL        -1.0333 
     20 O2P        41.5090   -3.1700   13.5690 O.co2     1 MOL        -1.0333 
     21 O3P        39.6970   -3.8990   14.9540 O.co2     1 MOL        -1.0333 
     22 H1         33.9110   -3.3760   11.4060 H         1 MOL         0.3700 
     23 H2         36.9900   -4.6050   13.8430 H         1 MOL         0.1500 
     24 H3         38.3210   -2.5420   13.0970 H         1 MOL         0.1500 
     25 H4         36.8550   -0.1930   10.7200 H         1 MOL         0.0000 
     26 H5         35.9270    0.2790   13.3340 H         1 MOL         0.0000 
     27 H6         37.1950    2.3460   13.0090 H         1 MOL         0.4000 
     28 H7         37.9170   -0.1690   14.4970 H         1 MOL         0.0000 
     29 H8         39.6280    1.1390   12.3380 H         1 MOL         0.0000 
     30 H9         38.6320    1.7970   15.1750 H         1 MOL         0.4000 
     31 H10        41.0190    0.1400   14.0360 H         1 MOL         0.0000 
     32 H11        40.9740   -1.0280   12.6910 H         1 MOL         0.0000 
@<TRIPOS>BOND
     1    1    2 am   
     2    1    6 1    
     3    1    9 1    
     4    2    3 am   
     5    2    7 2    
     6    3    4 am   
     7    4    5 1    
     8    4    8 2    
     9    5    6 2    
    10    9   10 1    
    11    9   15 1    
    12   10   11 1    
    13   10   12 1    
    14   12   13 1    
    15   12   14 1    
    16   13   15 1    
    17   13   16 1    
    18   16   17 1    
    19   17   18 1    
    20   18   19 ar   
    21   18   20 ar   
    22   18   21 ar   
    23    3   22 1    
    24    5   23 1    
    25    6   24 1    
    26    9   25 1    
    27   10   26 1    
    28   11   27 1    
    29   12   28 1    
    30   13   29 1    
    31   14   30 1    
    32   16   31 1    
    33   16   32 1    
@<TRIPOS>SUBSTRUCTURE
     1 MOL         1 PERM              0 ****  ****    0 ROOT 
@<TRIPOS>NORMAL
@<TRIPOS>ALT_TYPE
MMFF94_ALT_TYPE_SET 
MMFF94 9 CR 10 CR 12 CR 13 CR 16 CR 2 CONN 4 C=ON 5 C=C 6 C=C 23 HC \
24 HC 25 HC 26 HC 28 HC 29 HC 31 HC 32 HC 22 HNCO 27 HOR \
30 HOR 7 O=CN 8 O=CN 19 O3P 20 O3P 21 O3P 17 OPO3 11 OR \
14 OR 15 OR 1 NC=O 3 NC=O 18 PO4 
