#	Name:			2y5h_ligand
#	Creating user name:	suminyi
#	Creation time:		Sun Sep 30 06:51:04 2018

#	Modifying user name:	suminyi
#	Modification time:	Sun Sep 30 06:51:04 2018

@<TRIPOS>MOLECULE
2y5h_ligand
   60    64     1     1     0
SMALL
MMFF94_CHARGES


@<TRIPOS>ATOM
      1 Cl1        -0.6880    5.9150   27.5610 Cl        1 MOL        -0.1240 
      2 C25        -1.3510    7.5100   27.3840 C.2       1 MOL         0.1640 
      3 C24        -2.3480    8.0470   28.1590 C.2       1 MOL        -0.1500 
      4 C22        -2.8030    9.3060   27.6730 C.2       1 MOL        -0.1500 
      5 S1         -0.8370    8.5860   26.1070 S.3       1 MOL        -0.0800 
      6 C20        -2.1000    9.6920   26.5600 C.2       1 MOL         0.0400 
      7 C17        -2.4630   10.8230   25.7590 C.2       1 MOL         0.4781 
      8 N16        -1.7600   11.1190   24.6470 N.2       1 MOL        -0.5653 
      9 O10        -3.5840   11.5860   25.9830 O.3       1 MOL        -0.2800 
     10 C9         -3.6380   12.2790   24.8150 C.2       1 MOL        -0.0100 
     11 C4         -2.5610   12.0340   24.0120 C.2       1 MOL         0.0462 
     12 C1         -2.2620   12.5860   22.6350 C.3       1 MOL         0.6840 
     13 N3         -3.1470   13.6960   22.0930 N.4       1 MOL        -0.9590 
     14 C7         -2.8040   13.7000   20.6270 C.3       1 MOL         0.5030 
     15 C14        -1.5840   14.6300   20.4620 C.3       1 MOL         0.0000 
     16 C15        -1.6410   15.5900   21.6690 C.3       1 MOL         0.0000 
     17 C8         -2.7840   15.0850   22.5660 C.3       1 MOL         0.5030 
     18 C5         -2.5000   12.2440   20.2290 C.3       1 MOL         0.0610 
     19 C2         -2.2290   11.4820   21.5510 C.3       1 MOL         0.0610 
     20 C6         -3.3660   10.4840   21.6050 C.2       1 MOL         0.5690 
     21 O13        -3.6090    9.7250   22.5100 O.2       1 MOL        -0.5700 
     22 C11        -3.7470   11.5970   19.6940 C.2       1 MOL         0.5690 
     23 O18        -4.3640   11.9810   18.7270 O.2       1 MOL        -0.5700 
     24 N12        -4.1310   10.6200   20.5150 N.am      1 MOL        -0.4201 
     25 C19        -5.3380    9.8040   20.2740 C.3       1 MOL         0.3001 
     26 C21        -5.0740    8.6610   19.2690 C.3       1 MOL         0.0000 
     27 C23        -6.3000    7.7240   19.1760 C.3       1 MOL         0.5030 
     28 N29        -6.2370    6.6160   18.1350 N.4       1 MOL        -1.0120 
     29 C32        -6.1470    7.1590   16.7160 C.3       1 MOL         0.5030 
     30 C31        -7.4940    5.7740   18.2600 C.3       1 MOL         0.5030 
     31 C30        -5.0540    5.7020   18.3910 C.3       1 MOL         0.5030 
     32 H1         -2.7970    7.5540   29.0240 H         1 MOL         0.1500 
     33 H2         -3.6330    9.8400   28.1290 H         1 MOL         0.1500 
     34 H3         -4.5110   12.9090   24.7070 H         1 MOL         0.1500 
     35 H4         -1.2550   13.0040   22.7100 H         1 MOL         0.0000 
     36 H5         -4.1530   13.4720   22.2440 H         1 MOL         0.4500 
     37 H6         -3.6520   14.1070   20.0600 H         1 MOL         0.0000 
     38 H7         -1.6270   15.1730   19.5130 H         1 MOL         0.0000 
     39 H8         -0.6420   14.0720   20.4870 H         1 MOL         0.0000 
     40 H9         -1.8350   16.6200   21.3540 H         1 MOL         0.0000 
     41 H10        -0.6900   15.5720   22.2070 H         1 MOL         0.0000 
     42 H11        -2.5210   15.0750   23.6280 H         1 MOL         0.0000 
     43 H12        -3.6610   15.7260   22.4310 H         1 MOL         0.0000 
     44 H13        -1.6970   12.1390   19.4960 H         1 MOL         0.0000 
     45 H14        -1.2860   10.9270   21.5520 H         1 MOL         0.0000 
     46 H15        -6.1390   10.4460   19.8920 H         1 MOL         0.0000 
     47 H16        -5.6840    9.3750   21.2230 H         1 MOL         0.0000 
     48 H17        -4.1960    8.0910   19.5810 H         1 MOL         0.0000 
     49 H18        -4.8550    9.0900   18.2900 H         1 MOL         0.0000 
     50 H19        -7.1940    8.3120   18.9510 H         1 MOL         0.0000 
     51 H20        -6.4500    7.2340   20.1430 H         1 MOL         0.0000 
     52 H21        -6.2070    6.3250   16.0100 H         1 MOL         0.0000 
     53 H22        -5.1930    7.6760   16.5870 H         1 MOL         0.0000 
     54 H23        -6.9790    7.8460   16.5390 H         1 MOL         0.0000 
     55 H24        -7.5230    5.3260   19.2580 H         1 MOL         0.0000 
     56 H25        -7.4710    4.9860   17.5040 H         1 MOL         0.0000 
     57 H26        -8.3720    6.4080   18.1100 H         1 MOL         0.0000 
     58 H27        -4.1270    6.2750   18.3100 H         1 MOL         0.0000 
     59 H28        -5.0580    4.9000   17.6520 H         1 MOL         0.0000 
     60 H29        -5.1440    5.2740   19.3890 H         1 MOL         0.0000 
@<TRIPOS>BOND
     1    1    2 1    
     2    2    3 2    
     3    2    5 1    
     4    3    4 1    
     5    4    6 2    
     6    5    6 1    
     7    6    7 1    
     8    7    8 2    
     9    7    9 1    
    10    8   11 1    
    11    9   10 1    
    12   10   11 2    
    13   11   12 1    
    14   12   13 1    
    15   12   19 1    
    16   13   14 1    
    17   13   17 1    
    18   14   15 1    
    19   14   18 1    
    20   15   16 1    
    21   16   17 1    
    22   18   19 1    
    23   18   22 1    
    24   19   20 1    
    25   20   21 2    
    26   20   24 am   
    27   22   23 2    
    28   22   24 am   
    29   24   25 1    
    30   25   26 1    
    31   26   27 1    
    32   27   28 1    
    33   28   29 1    
    34   28   30 1    
    35   28   31 1    
    36    3   32 1    
    37    4   33 1    
    38   10   34 1    
    39   12   35 1    
    40   13   36 1    
    41   14   37 1    
    42   15   38 1    
    43   15   39 1    
    44   16   40 1    
    45   16   41 1    
    46   17   42 1    
    47   17   43 1    
    48   18   44 1    
    49   19   45 1    
    50   25   46 1    
    51   25   47 1    
    52   26   48 1    
    53   26   49 1    
    54   27   50 1    
    55   27   51 1    
    56   29   52 1    
    57   29   53 1    
    58   29   54 1    
    59   30   55 1    
    60   30   56 1    
    61   30   57 1    
    62   31   58 1    
    63   31   59 1    
    64   31   60 1    
@<TRIPOS>SUBSTRUCTURE
     1 MOL         1 PERM              0 ****  ****    0 ROOT 
@<TRIPOS>NORMAL
@<TRIPOS>ALT_TYPE
MMFF94_ALT_TYPE_SET 
MMFF94 12 CR 14 CR 15 CR 16 CR 17 CR 18 CR 19 CR 25 CR 26 CR 27 CR 29 CR \
30 CR 31 CR 2 C5A 6 C5A 7 C5A 10 C5A 3 C5B 4 C5B 11 C5B \
20 C=ON 22 C=ON 32 HC 33 HC 34 HC 35 HC 37 HC 38 HC \
39 HC 40 HC 41 HC 42 HC 43 HC 44 HC 45 HC 46 HC 47 HC \
48 HC 49 HC 50 HC 51 HC 52 HC 53 HC 54 HC 55 HC 56 HC \
57 HC 58 HC 59 HC 60 HC 36 HNR+ 9 OFUR 21 O=CN 23 O=CN \
8 N5B 13 NR+ 28 NR+ 24 NC=O 5 STHI 1 CL
