#	Name:			4ivc_ligand
#	Creating user name:	suminyi
#	Creation time:		Sun Sep 30 06:49:02 2018

#	Modifying user name:	suminyi
#	Modification time:	Sun Sep 30 06:49:02 2018

@<TRIPOS>MOLECULE
4ivc_ligand
   45    48     1     1     0
SMALL
MMFF94_CHARGES


@<TRIPOS>ATOM
      1 C1         10.8090   57.1620   -1.6820 C.3       1 UNNAMED     0.0000 
      2 C2          9.7620   56.5650   -0.7290 C.3       1 UNNAMED     0.4600 
      3 O4         10.3290   56.2350    0.5450 O.3       1 UNNAMED    -0.6800 
      4 C5          8.6250   57.5160   -0.4670 C.2       1 UNNAMED     0.0065 
      5 N6          7.4640   57.1690    0.1600 N.pl3     1 UNNAMED     0.0476 
      6 C7          6.6910   58.3230    0.2240 C.ar      1 UNNAMED    -0.1516 
      7 C8          7.4450   59.3400   -0.4020 C.ar      1 UNNAMED     0.2272 
      8 N9          8.6160   58.7790   -0.7880 N.2       1 UNNAMED    -0.5653 
      9 C10         6.9200   60.6330   -0.5090 C.ar      1 UNNAMED     0.1600 
     10 N11         5.7300   60.9430   -0.0470 N.ar      1 UNNAMED    -0.5670 
     11 C12         4.9740   60.0140    0.5360 C.ar      1 UNNAMED     0.1054 
     12 C13         5.4240   58.6860    0.6980 C.ar      1 UNNAMED     0.0000 
     13 C14         4.3380   57.9640    1.3580 C.2       1 UNNAMED    -0.1500 
     14 C15         3.3490   58.8410    1.5500 C.2       1 UNNAMED    -0.3016 
     15 N16         3.7350   60.0730    1.0750 N.pl3     1 UNNAMED     0.0332 
     16 C18         7.1600   55.8230    0.6610 C.3       1 UNNAMED     0.2556 
     17 C20         6.8280   55.8880    2.1630 C.3       1 UNNAMED     0.0000 
     18 C21         6.5080   54.4820    2.6830 C.3       1 UNNAMED     0.0000 
     19 C22         5.4220   53.7580    1.8720 C.3       1 UNNAMED     0.0000 
     20 C24         5.7000   53.7810    0.3470 C.3       1 UNNAMED     0.0000 
     21 C25         5.9970   55.2070   -0.1270 C.3       1 UNNAMED     0.0000 
     22 C26         5.3250   52.3070    2.4090 C.3       1 UNNAMED     0.2000 
     23 C27         4.1500   51.6550    1.7620 C.1       1 UNNAMED     0.3571 
     24 N28         3.2540   51.2550    1.1620 N.1       1 UNNAMED    -0.5571 
     25 H1         10.3343   57.4005   -2.6452 H         1 UNNAMED     0.0000 
     26 H2         11.6171   56.4331   -1.8421 H         1 UNNAMED     0.0000 
     27 H3         11.2251   58.0798   -1.2411 H         1 UNNAMED     0.0000 
     28 H4          9.3634   55.6503   -1.1921 H         1 UNNAMED     0.0000 
     29 H5          9.6545   55.8699    1.1055 H         1 UNNAMED     0.4000 
     30 H6          7.5140   61.4028   -0.9882 H         1 UNNAMED     0.1500 
     31 H7          4.3356   56.9120    1.6394 H         1 UNNAMED     0.1500 
     32 H8          2.3880   58.6161    2.0103 H         1 UNNAMED     0.1500 
     33 H9          3.1584   60.9251    1.1233 H         1 UNNAMED     0.2700 
     34 H10         8.0479   55.1880    0.5251 H         1 UNNAMED     0.0000 
     35 H11         5.9568   56.5417    2.3169 H         1 UNNAMED     0.0000 
     36 H12         7.6916   56.2927    2.7111 H         1 UNNAMED     0.0000 
     37 H13         6.1656   54.5662    3.7249 H         1 UNNAMED     0.0000 
     38 H14         7.4280   53.8802    2.6469 H         1 UNNAMED     0.0000 
     39 H15         4.4609   54.2642    2.0454 H         1 UNNAMED     0.0000 
     40 H16         4.8172   53.3994   -0.1869 H         1 UNNAMED     0.0000 
     41 H17         6.5665   53.1398    0.1281 H         1 UNNAMED     0.0000 
     42 H18         6.2602   55.1825   -1.1947 H         1 UNNAMED     0.0000 
     43 H19         5.0993   55.8265    0.0153 H         1 UNNAMED     0.0000 
     44 H20         5.1902   52.3209    3.5006 H         1 UNNAMED     0.0000 
     45 H21         6.2429   51.7544    2.1599 H         1 UNNAMED     0.0000 
@<TRIPOS>BOND
     1    1    2 1    
     2    2    3 1    
     3    2    4 1    
     4    4    5 1    
     5    4    8 2    
     6    5    6 1    
     7    5   16 1    
     8    6    7 ar   
     9    6   12 ar   
    10    7    8 1    
    11    7    9 ar   
    12    9   10 ar   
    13   10   11 ar   
    14   11   12 ar   
    15   11   15 1    
    16   12   13 1    
    17   13   14 2    
    18   14   15 1    
    19   16   17 1    
    20   16   21 1    
    21   17   18 1    
    22   18   19 1    
    23   19   20 1    
    24   19   22 1    
    25   20   21 1    
    26   22   23 1    
    27   23   24 3    
    28    1   25 1    
    29    1   26 1    
    30    1   27 1    
    31    2   28 1    
    32    3   29 1    
    33    9   30 1    
    34   13   31 1    
    35   14   32 1    
    36   15   33 1    
    37   16   34 1    
    38   17   35 1    
    39   17   36 1    
    40   18   37 1    
    41   18   38 1    
    42   19   39 1    
    43   20   40 1    
    44   20   41 1    
    45   21   42 1    
    46   21   43 1    
    47   22   44 1    
    48   22   45 1    
@<TRIPOS>SUBSTRUCTURE
     1 UNNAMED     1 PERM              0 ****  ****    0 ROOT 
@<TRIPOS>NORMAL
@<TRIPOS>ALT_TYPE
MMFF94_ALT_TYPE_SET 
MMFF94 1 CR 2 CR 16 CR 17 CR 18 CR 19 CR 20 CR 21 CR 22 CR 4 C5A 14 C5A \
6 C5A 11 C5A 13 C5B 7 C5B 12 C5B 9 CB 23 CSP 25 HC 26 HC \
27 HC 28 HC 30 HC 31 HC 32 HC 34 HC 35 HC 36 HC 37 HC \
38 HC 39 HC 40 HC 41 HC 42 HC 43 HC 44 HC 45 HC 33 HPYL \
29 HOR 3 OR 10 NPYD 5 NPYL 15 NPYL 8 N5B 24 NSP 
