#	Name:			4ivc_ligand
#	Creating user name:	suminyi
#	Creation time:		Sun Sep 30 06:50:58 2018

#	Modifying user name:	suminyi
#	Modification time:	Sun Sep 30 06:50:59 2018

@<TRIPOS>MOLECULE
4ivc_ligand
   45    48     1     1     0
SMALL
MMFF94_CHARGES


@<TRIPOS>ATOM
      1 C1         10.7340   56.9810   -1.5540 C.3       1 MOL         0.0000 
      2 C2          9.6410   56.4820   -0.5930 C.3       1 MOL         0.4600 
      3 O4         10.2500   56.2200    0.6800 O.3       1 MOL        -0.6800 
      4 C5          8.4700   57.4450   -0.4700 C.2       1 MOL         0.0065 
      5 N6          7.2620   57.1390    0.1670 N.pl3     1 MOL         0.0476 
      6 C7          6.5660   58.3010    0.1370 C.ar      1 MOL        -0.1516 
      7 C8          7.3430   59.2240   -0.5000 C.ar      1 MOL         0.2272 
      8 N9          8.4990   58.7210   -0.9370 N.2       1 MOL        -0.5653 
      9 C10         6.9200   60.5470   -0.6090 C.ar      1 MOL         0.1600 
     10 N11         5.7300   60.9810   -0.1220 N.ar      1 MOL        -0.5670 
     11 C12         4.9740   60.0570    0.5030 C.ar      1 MOL         0.1054 
     12 C13         5.3280   58.7300    0.6380 C.ar      1 MOL         0.0000 
     13 C14         4.2710   58.0640    1.3270 C.2       1 MOL        -0.1500 
     14 C15         3.3260   59.0330    1.5970 C.2       1 MOL        -0.3016 
     15 N16         3.7750   60.2420    1.0780 N.pl3     1 MOL         0.0332 
     16 C18         6.9250   55.8130    0.7150 C.3       1 MOL         0.2556 
     17 C20         6.7370   55.7550    2.2510 C.3       1 MOL         0.0000 
     18 C21         6.4070   54.3220    2.7380 C.3       1 MOL         0.0000 
     19 C22         5.2390   53.6680    1.9490 C.3       1 MOL         0.0000 
     20 C24         5.5700   53.6820    0.4370 C.3       1 MOL         0.0000 
     21 C25         5.7930   55.1210   -0.0640 C.3       1 MOL         0.0000 
     22 C26         4.9700   52.2220    2.4510 C.3       1 MOL         0.2000 
     23 C27         3.7930   51.5780    1.8160 C.1       1 MOL         0.3571 
     24 N28         2.9120   51.0780    1.3050 N.1       1 MOL        -0.5571 
     25 H1         10.3090   57.1990   -2.5350 H         1 MOL         0.0000 
     26 H2         11.5010   56.2150   -1.6770 H         1 MOL         0.0000 
     27 H3         11.2040   57.8860   -1.1660 H         1 MOL         0.0000 
     28 H4          9.2760   55.5330   -0.9790 H         1 MOL         0.0000 
     29 H5         11.2280   56.0410    0.5810 H         1 MOL         0.4000 
     30 H6          7.5230   61.2830   -1.1260 H         1 MOL         0.1500 
     31 H7          4.1910   57.0270    1.6260 H         1 MOL         0.1500 
     32 H8          2.3890   58.9590    2.1370 H         1 MOL         0.1500 
     33 H9          3.3140   61.1490    1.1210 H         1 MOL         0.2700 
     34 H10         7.7940   55.1770    0.5400 H         1 MOL         0.0000 
     35 H11         5.9630   56.4400    2.5870 H         1 MOL         0.0000 
     36 H12         7.6640   56.0840    2.7290 H         1 MOL         0.0000 
     37 H13         6.1610   54.3600    3.8010 H         1 MOL         0.0000 
     38 H14         7.3040   53.7040    2.6430 H         1 MOL         0.0000 
     39 H15         4.3360   54.2620    2.1230 H         1 MOL         0.0000 
     40 H16         4.7650   53.2190   -0.1360 H         1 MOL         0.0000 
     41 H17         6.4710   53.0920    0.2560 H         1 MOL         0.0000 
     42 H18         6.0540   55.0930   -1.1240 H         1 MOL         0.0000 
     43 H19         4.8710   55.6910    0.0240 H         1 MOL         0.0000 
     44 H20         4.8080   52.2370    3.5300 H         1 MOL         0.0000 
     45 H21         5.8460   51.5950    2.2720 H         1 MOL         0.0000 
@<TRIPOS>BOND
     1    1    2 1    
     2    2    3 1    
     3    2    4 1    
     4    4    5 1    
     5    4    8 2    
     6    5    6 1    
     7    5   16 1    
     8    6    7 ar   
     9    6   12 ar   
    10    7    8 1    
    11    7    9 ar   
    12    9   10 ar   
    13   10   11 ar   
    14   11   12 ar   
    15   11   15 1    
    16   12   13 1    
    17   13   14 2    
    18   14   15 1    
    19   16   17 1    
    20   16   21 1    
    21   17   18 1    
    22   18   19 1    
    23   19   20 1    
    24   19   22 1    
    25   20   21 1    
    26   22   23 1    
    27   23   24 3    
    28    1   25 1    
    29    1   26 1    
    30    1   27 1    
    31    2   28 1    
    32    3   29 1    
    33    9   30 1    
    34   13   31 1    
    35   14   32 1    
    36   15   33 1    
    37   16   34 1    
    38   17   35 1    
    39   17   36 1    
    40   18   37 1    
    41   18   38 1    
    42   19   39 1    
    43   20   40 1    
    44   20   41 1    
    45   21   42 1    
    46   21   43 1    
    47   22   44 1    
    48   22   45 1    
@<TRIPOS>SUBSTRUCTURE
     1 MOL         1 PERM              0 ****  ****    0 ROOT 
@<TRIPOS>NORMAL
@<TRIPOS>ALT_TYPE
MMFF94_ALT_TYPE_SET 
MMFF94 1 CR 2 CR 16 CR 17 CR 18 CR 19 CR 20 CR 21 CR 22 CR 4 C5A 14 C5A \
6 C5A 11 C5A 13 C5B 7 C5B 12 C5B 9 CB 23 CSP 25 HC 26 HC \
27 HC 28 HC 30 HC 31 HC 32 HC 34 HC 35 HC 36 HC 37 HC \
38 HC 39 HC 40 HC 41 HC 42 HC 43 HC 44 HC 45 HC 33 HPYL \
29 HOR 3 OR 10 NPYD 5 NPYL 15 NPYL 8 N5B 24 NSP 
