#	Name:			4gkm_ligand
#	Creating user name:	suminyi
#	Creation time:		Sun Sep 30 06:50:57 2018

#	Modifying user name:	suminyi
#	Modification time:	Sun Sep 30 06:50:57 2018

@<TRIPOS>MOLECULE
4gkm_ligand
   31    32     1     1     0
SMALL
MMFF94_CHARGES


@<TRIPOS>ATOM
      1 OX1       -30.2870  -31.1820    7.3600 O.co2     1 MOL        -0.9000 
      2 CY1       -29.6170  -30.2050    7.6220 C.2       1 MOL         0.9790 
      3 OX2       -30.1680  -29.1330    7.7270 O.co2     1 MOL        -0.9000 
      4 CY2       -28.1380  -30.3080    7.8310 C.ar      1 MOL        -0.1790 
      5 CY3       -27.4210  -29.1290    8.0600 C.ar      1 MOL        -0.1500 
      6 CY4       -26.0590  -29.1580    8.3290 C.ar      1 MOL        -0.1435 
      7 C4        -25.3350  -27.8520    8.5720 C.3       1 MOL         0.1435 
      8 CY5       -25.3950  -30.3780    8.3710 C.ar      1 MOL        -0.1500 
      9 CY6       -26.0880  -31.5560    8.1020 C.ar      1 MOL        -0.1500 
     10 CY0       -27.4630  -31.5370    7.8580 C.ar      1 MOL         0.1000 
     11 N1        -28.1470  -32.7010    7.6380 N.pl3     1 MOL        -0.6000 
     12 CX2       -28.0500  -33.9810    8.1070 C.ar      1 MOL         0.1000 
     13 CX3       -27.2220  -34.2760    9.1960 C.ar      1 MOL        -0.1500 
     14 CX4       -27.0900  -35.5780    9.6620 C.ar      1 MOL        -0.1500 
     15 CX5       -27.8090  -36.5990    9.0540 C.ar      1 MOL        -0.1500 
     16 CX6       -28.6700  -36.3110    7.9960 C.ar      1 MOL        -0.1500 
     17 CX1       -28.8210  -35.0000    7.5200 C.ar      1 MOL        -0.1790 
     18 CX0       -29.8110  -34.7450    6.4040 C.2       1 MOL         0.9790 
     19 OY1       -30.4300  -35.6690    5.9290 O.co2     1 MOL        -0.9000 
     20 OY2       -30.0950  -33.6120    6.0510 O.co2     1 MOL        -0.9000 
     21 H         -27.9420  -28.1720    8.0660 H         1 MOL         0.1500 
     22 H1        -24.2510  -27.9840    8.5630 H         1 MOL         0.0000 
     23 H2        -25.6350  -27.4210    9.5290 H         1 MOL         0.0000 
     24 H3        -25.6060  -27.1450    7.7880 H         1 MOL         0.0000 
     25 H4        -24.3330  -30.4130    8.5990 H         1 MOL         0.1500 
     26 H5        -25.5450  -32.4960    8.1040 H         1 MOL         0.1500 
     27 H6        -29.0650  -32.5470    7.1600 H         1 MOL         0.4000 
     28 H7        -26.6710  -33.4920    9.7030 H         1 MOL         0.1500 
     29 H8        -26.4280  -35.7890   10.4980 H         1 MOL         0.1500 
     30 H9        -27.7060  -37.6210    9.4080 H         1 MOL         0.1500 
     31 H10       -29.2330  -37.1200    7.5350 H         1 MOL         0.1500 
@<TRIPOS>BOND
     1    1    2 ar   
     2    2    3 ar   
     3    2    4 1    
     4    4    5 ar   
     5    4   10 ar   
     6    5    6 ar   
     7    6    7 1    
     8    6    8 ar   
     9    8    9 ar   
    10    9   10 ar   
    11   10   11 1    
    12   11   12 1    
    13   12   13 ar   
    14   12   17 ar   
    15   13   14 ar   
    16   14   15 ar   
    17   15   16 ar   
    18   16   17 ar   
    19   17   18 1    
    20   18   19 ar   
    21   18   20 ar   
    22    5   21 1    
    23    7   22 1    
    24    7   23 1    
    25    7   24 1    
    26    8   25 1    
    27    9   26 1    
    28   11   27 1    
    29   13   28 1    
    30   14   29 1    
    31   15   30 1    
    32   16   31 1    
@<TRIPOS>SUBSTRUCTURE
     1 MOL         1 PERM              0 ****  ****    0 ROOT 
@<TRIPOS>NORMAL
@<TRIPOS>ALT_TYPE
MMFF94_ALT_TYPE_SET 
MMFF94 7 CR 4 CB 5 CB 6 CB 8 CB 9 CB 10 CB 12 CB 13 CB 14 CB 15 CB 16 CB \
17 CB 2 CO2M 18 CO2M 21 HC 22 HC 23 HC 24 HC 25 HC 26 HC \
28 HC 29 HC 30 HC 31 HC 27 HNCC 1 O2CM 3 O2CM 19 O2CM \
20 O2CM 11 NC=C 
