#	Name:			2ymd_ligand
#	Creating user name:	suminyi
#	Creation time:		Sun Sep 30 06:50:58 2018

#	Modifying user name:	suminyi
#	Modification time:	Sun Sep 30 06:50:58 2018

@<TRIPOS>MOLECULE
2ymd_ligand
   26    27     1     1     0
SMALL
MMFF94_CHARGES


@<TRIPOS>ATOM
      1 OH         13.1540    9.8850   11.2190 O.3       1 MOL        -0.5325 
      2 CZ3        13.2200    9.6840    9.8810 C.ar      1 MOL         0.0825 
      3 CH2        14.1920   10.3380    9.1150 C.ar      1 MOL        -0.1500 
      4 CZ2        14.3020   10.0730    7.7430 C.ar      1 MOL        -0.1500 
      5 CE2        13.3750    9.2040    7.1750 C.ar      1 MOL        -0.1516 
      6 NE1        13.2720    8.8060    5.8910 N.pl3     1 MOL         0.0332 
      7 CD1        12.1270    8.0200    5.7700 C.2       1 MOL        -0.3016 
      8 CG         11.5560    7.9030    7.0250 C.2       1 MOL        -0.1810 
      9 CD2        12.3920    8.6260    7.9140 C.ar      1 MOL         0.0000 
     10 CE3        12.3290    8.7960    9.2850 C.ar      1 MOL        -0.1500 
     11 CB         10.2320    7.2640    7.3660 C.3       1 MOL         0.1810 
     12 CA         10.2560    5.8010    6.9060 C.3       1 MOL         0.5030 
     13 NZ         11.3850    5.0390    7.5380 N.4       1 MOL        -0.8530 
     14 H1         12.8040    9.0730   11.6290 H         1 MOL         0.4500 
     15 H2         14.8990   10.9960    9.6140 H         1 MOL         0.1500 
     16 H3         15.0820   10.5250    7.1410 H         1 MOL         0.1500 
     17 H4         13.9510    8.9660    5.1530 H         1 MOL         0.2700 
     18 H5         11.8200    7.6300    4.8050 H         1 MOL         0.1500 
     19 H6         11.6010    8.2470    9.8610 H         1 MOL         0.1500 
     20 H7          9.4190    7.7930    6.8640 H         1 MOL         0.0000 
     21 H8         10.0290    7.3070    8.4380 H         1 MOL         0.0000 
     22 H9         10.3940    5.7560    5.8200 H         1 MOL         0.0000 
     23 H10         9.3170    5.2980    7.1620 H         1 MOL         0.0000 
     24 H11        11.5940    4.1430    7.0440 H         1 MOL         0.4500 
     25 H12        11.2210    4.8020    8.5300 H         1 MOL         0.4500 
     26 H13        12.2850    5.5830    7.5160 H         1 MOL         0.4500 
@<TRIPOS>BOND
     1    1    2 1    
     2    2    3 ar   
     3    2   10 ar   
     4    3    4 ar   
     5    4    5 ar   
     6    5    6 1    
     7    5    9 ar   
     8    6    7 1    
     9    7    8 2    
    10    8    9 1    
    11    8   11 1    
    12    9   10 ar   
    13   11   12 1    
    14   12   13 1    
    15    1   14 1    
    16    3   15 1    
    17    4   16 1    
    18    6   17 1    
    19    7   18 1    
    20   10   19 1    
    21   11   20 1    
    22   11   21 1    
    23   12   22 1    
    24   12   23 1    
    25   13   24 1    
    26   13   25 1    
    27   13   26 1    
@<TRIPOS>SUBSTRUCTURE
     1 MOL         1 PERM              0 ****  ****    0 ROOT 
@<TRIPOS>NORMAL
@<TRIPOS>ALT_TYPE
MMFF94_ALT_TYPE_SET 
MMFF94 11 CR 12 CR 7 C5A 5 C5A 8 C5B 9 C5B 2 CB 3 CB 4 CB 10 CB 15 HC \
16 HC 18 HC 19 HC 20 HC 21 HC 22 HC 23 HC 17 HPYL 24 HNR+ \
25 HNR+ 26 HNR+ 14 HOCC 1 OC=C 6 NPYL 13 NR+ 
