#	Name:			2wn9_ligand
#	Creating user name:	suminyi
#	Creation time:		Sun Sep 30 06:51:16 2018

#	Modifying user name:	suminyi
#	Modification time:	Sun Sep 30 06:51:16 2018

@<TRIPOS>MOLECULE
2wn9_ligand
   40    42     1     1     0
SMALL
MMFF94_CHARGES


@<TRIPOS>ATOM
      1 C7         30.2100   -6.5800   62.9350 C.2       1 MOL        -0.1784 
      2 C4         31.0460   -7.2120   64.0060 C.ar      1 MOL         0.0284 
      3 C3         30.8380   -8.5640   64.3400 C.ar      1 MOL         0.0825 
      4 O21        29.8920   -9.2990   63.6410 O.3       1 MOL        -0.3625 
      5 C22        29.2100  -10.4460   64.1930 C.3       1 MOL         0.2800 
      6 C2         31.5710   -9.1570   65.3740 C.ar      1 MOL        -0.1500 
      7 C5         32.0550   -6.5130   64.6840 C.ar      1 MOL        -0.1500 
      8 C6         32.7650   -7.1060   65.7200 C.ar      1 MOL        -0.1500 
      9 C1         32.5220   -8.4220   66.0660 C.ar      1 MOL         0.0825 
     10 O20        33.2720   -8.9870   67.0410 O.3       1 MOL        -0.5325 
     11 C8         30.0370   -5.3110   62.4920 C.2       1 MOL        -0.1238 
     12 C13        30.5670   -4.1070   63.2670 C.3       1 MOL         0.1382 
     13 C12        29.5580   -2.9490   63.2720 C.3       1 MOL         0.0000 
     14 C11        29.1270   -2.6460   61.8410 C.3       1 MOL         0.2460 
     15 N10        28.5710   -3.8770   61.2360 N.2       1 MOL        -0.6960 
     16 C9         29.1300   -5.0240   61.3570 C.2       1 MOL         0.3494 
     17 C14        28.9590   -5.9900   60.2400 C.ar      1 MOL         0.0862 
     18 C19        27.7780   -5.9720   59.4960 C.ar      1 MOL         0.1600 
     19 N18        27.5750   -6.7380   58.3940 N.ar      1 MOL        -0.6200 
     20 C17        28.6230   -7.4580   57.9490 C.ar      1 MOL         0.1600 
     21 C16        29.8420   -7.5190   58.6210 C.ar      1 MOL        -0.1500 
     22 C15        30.0110   -6.7960   59.8000 C.ar      1 MOL        -0.1500 
     23 H1         29.5820   -7.3110   62.4290 H         1 MOL         0.1500 
     24 H2         28.4930  -10.8150   63.4580 H         1 MOL         0.0000 
     25 H3         28.6740  -10.1480   65.0960 H         1 MOL         0.0000 
     26 H4         29.9320  -11.2350   64.4160 H         1 MOL         0.0000 
     27 H5         31.4420  -10.2010   65.6390 H         1 MOL         0.1500 
     28 H6         32.3660   -5.5230   64.3770 H         1 MOL         0.1500 
     29 H7         33.5400   -6.5540   66.2450 H         1 MOL         0.1500 
     30 H8         32.8150   -9.8230   67.4300 H         1 MOL         0.4500 
     31 H9         31.5210   -3.7720   62.8530 H         1 MOL         0.0000 
     32 H10        30.7040   -4.3380   64.3210 H         1 MOL         0.0000 
     33 H11        30.0020   -2.0610   63.7240 H         1 MOL         0.0000 
     34 H12        28.6820   -3.2230   63.8640 H         1 MOL         0.0000 
     35 H13        29.9870   -2.3140   61.2510 H         1 MOL         0.0000 
     36 H14        28.3830   -1.8500   61.8280 H         1 MOL         0.0000 
     37 H15        26.9470   -5.3380   59.7810 H         1 MOL         0.1500 
     38 H16        28.4530   -8.0250   57.0360 H         1 MOL         0.1500 
     39 H17        30.6560   -8.1100   58.2140 H         1 MOL         0.1500 
     40 H18        30.9760   -6.7830   60.3050 H         1 MOL         0.1500 
@<TRIPOS>BOND
     1    1    2 1    
     2    1   11 2    
     3    2    3 ar   
     4    2    7 ar   
     5    3    4 1    
     6    3    6 ar   
     7    4    5 1    
     8    6    9 ar   
     9    7    8 ar   
    10    8    9 ar   
    11    9   10 1    
    12   11   12 1    
    13   11   16 1    
    14   12   13 1    
    15   13   14 1    
    16   14   15 1    
    17   15   16 2    
    18   16   17 1    
    19   17   18 ar   
    20   17   22 ar   
    21   18   19 ar   
    22   19   20 ar   
    23   20   21 ar   
    24   21   22 ar   
    25    1   23 1    
    26    5   24 1    
    27    5   25 1    
    28    5   26 1    
    29    6   27 1    
    30    7   28 1    
    31    8   29 1    
    32   10   30 1    
    33   12   31 1    
    34   12   32 1    
    35   13   33 1    
    36   13   34 1    
    37   14   35 1    
    38   14   36 1    
    39   18   37 1    
    40   20   38 1    
    41   21   39 1    
    42   22   40 1    
@<TRIPOS>SUBSTRUCTURE
     1 MOL         1 PERM              0 ****  ****    0 ROOT 
@<TRIPOS>NORMAL
@<TRIPOS>ALT_TYPE
MMFF94_ALT_TYPE_SET 
MMFF94 5 CR 12 CR 13 CR 14 CR 2 CB 3 CB 6 CB 7 CB 8 CB 9 CB 17 CB 18 CB \
20 CB 21 CB 22 CB 16 C=N 1 C=C 11 C=C 23 HC 24 HC 25 HC \
26 HC 27 HC 28 HC 29 HC 31 HC 32 HC 33 HC 34 HC 35 HC \
36 HC 37 HC 38 HC 39 HC 40 HC 30 HOCC 4 OC=C 10 OC=C \
19 NPYD 15 N=C
