#	Name:			2wn9_ligand
#	Creating user name:	suminyi
#	Creation time:		Sun Sep 30 06:49:07 2018

#	Modifying user name:	suminyi
#	Modification time:	Sun Sep 30 06:49:07 2018

@<TRIPOS>MOLECULE
2wn9_ligand
   40    42     1     1     0
SMALL
MMFF94_CHARGES


@<TRIPOS>ATOM
      1 C7         30.2280   -6.5920   62.6450 C.2       1 ZY5        -0.1784 
      2 C4         30.9340   -7.0840   63.8860 C.ar      1 ZY5         0.0284 
      3 C3         30.6000   -8.3240   64.3910 C.ar      1 ZY5         0.0825 
      4 O21        29.6330   -8.9900   63.6950 O.3       1 ZY5        -0.3625 
      5 C22        29.1650  -10.3310   63.9660 C.3       1 ZY5         0.2800 
      6 C2         31.2340   -8.8180   65.5450 C.ar      1 ZY5        -0.1500 
      7 C5         31.9230   -6.3420   64.5230 C.ar      1 ZY5        -0.1500 
      8 C6         32.5380   -6.8190   65.6690 C.ar      1 ZY5        -0.1500 
      9 C1         32.2130   -8.0570   66.1800 C.ar      1 ZY5         0.0825 
     10 O20        32.8390   -8.5060   67.3310 O.3       1 ZY5        -0.5325 
     11 C8         29.9340   -5.2960   62.4020 C.2       1 ZY5        -0.1238 
     12 C13        30.2990   -4.1670   63.3450 C.3       1 ZY5         0.1382 
     13 C12        29.4730   -2.9140   63.1080 C.3       1 ZY5         0.0000 
     14 C11        29.5500   -2.5090   61.6510 C.3       1 ZY5         0.2460 
     15 N10        29.0780   -3.6860   60.9320 N.2       1 ZY5        -0.6960 
     16 C9         29.2950   -4.9260   61.1410 C.2       1 ZY5         0.3494 
     17 C14        28.9180   -5.8840   60.0420 C.ar      1 ZY5         0.0862 
     18 C19        27.5920   -6.0490   59.6700 C.ar      1 ZY5         0.1600 
     19 N18        27.2420   -6.8530   58.6610 N.ar      1 ZY5        -0.6200 
     20 C17        28.1700   -7.5360   57.9760 C.ar      1 ZY5         0.1600 
     21 C16        29.5370   -7.3990   58.3000 C.ar      1 ZY5        -0.1500 
     22 C15        29.9110   -6.5710   59.3450 C.ar      1 ZY5        -0.1500 
     23 H1         29.9372   -7.3292   61.8981 H         1 ZY5         0.1500 
     24 H2         28.3823  -10.5996   63.2413 H         1 ZY5         0.0000 
     25 H3         28.7526  -10.3766   64.9847 H         1 ZY5         0.0000 
     26 H4         30.0040  -11.0370   63.8781 H         1 ZY5         0.0000 
     27 H5         30.9612   -9.7899   65.9400 H         1 ZY5         0.1500 
     28 H6         32.2158   -5.3799   64.1183 H         1 ZY5         0.1500 
     29 H7         33.2834   -6.2116   66.1695 H         1 ZY5         0.1500 
     30 H8         32.5095   -9.3688   67.5534 H         1 ZY5         0.4500 
     31 H9         31.3615   -3.9199   63.2034 H         1 ZY5         0.0000 
     32 H10        30.1359   -4.5055   64.3788 H         1 ZY5         0.0000 
     33 H11        29.8625   -2.0975   63.7338 H         1 ZY5         0.0000 
     34 H12        28.4248   -3.1130   63.3755 H         1 ZY5         0.0000 
     35 H13        30.5845   -2.2662   61.3669 H         1 ZY5         0.0000 
     36 H14        28.9019   -1.6429   61.4512 H         1 ZY5         0.0000 
     37 H15        26.8206   -5.5128   60.2108 H         1 ZY5         0.1500 
     38 H16        27.8695   -8.1960   57.1703 H         1 ZY5         0.1500 
     39 H17        30.2887   -7.9381   57.7348 H         1 ZY5         0.1500 
     40 H18        30.9547   -6.4592   59.6157 H         1 ZY5         0.1500 
@<TRIPOS>BOND
     1    1    2 1    
     2    1   11 2    
     3    2    3 ar   
     4    2    7 ar   
     5    3    4 1    
     6    3    6 ar   
     7    4    5 1    
     8    6    9 ar   
     9    7    8 ar   
    10    8    9 ar   
    11    9   10 1    
    12   11   12 1    
    13   11   16 1    
    14   12   13 1    
    15   13   14 1    
    16   14   15 1    
    17   15   16 2    
    18   16   17 1    
    19   17   18 ar   
    20   17   22 ar   
    21   18   19 ar   
    22   19   20 ar   
    23   20   21 ar   
    24   21   22 ar   
    25    1   23 1    
    26    5   24 1    
    27    5   25 1    
    28    5   26 1    
    29    6   27 1    
    30    7   28 1    
    31    8   29 1    
    32   10   30 1    
    33   12   31 1    
    34   12   32 1    
    35   13   33 1    
    36   13   34 1    
    37   14   35 1    
    38   14   36 1    
    39   18   37 1    
    40   20   38 1    
    41   21   39 1    
    42   22   40 1    
@<TRIPOS>SUBSTRUCTURE
     1 ZY5         1 PERM              0 ****  ****    0 ROOT 
@<TRIPOS>NORMAL
@<TRIPOS>ALT_TYPE
MMFF94_ALT_TYPE_SET 
MMFF94 5 CR 12 CR 13 CR 14 CR 2 CB 3 CB 6 CB 7 CB 8 CB 9 CB 17 CB 18 CB \
20 CB 21 CB 22 CB 16 C=N 1 C=C 11 C=C 23 HC 24 HC 25 HC \
26 HC 27 HC 28 HC 29 HC 31 HC 32 HC 33 HC 34 HC 35 HC \
36 HC 37 HC 38 HC 39 HC 40 HC 30 HOCC 4 OC=C 10 OC=C \
19 NPYD 15 N=C
