#	Name:			2wca_ligand
#	Creating user name:	suminyi
#	Creation time:		Sun Sep 30 06:51:12 2018

#	Modifying user name:	suminyi
#	Modification time:	Sun Sep 30 06:51:12 2018

@<TRIPOS>MOLECULE
2wca_ligand
   50    51     1     1     0
SMALL
MMFF94_CHARGES


@<TRIPOS>ATOM
      1 C2        -11.5810  -11.9960    3.8960 C.3       1 MOL         0.0000 
      2 C1        -10.6520  -11.3140    4.9050 C.3       1 MOL         0.0000 
      3 C3         -9.8970  -12.3330    5.7830 C.3       1 MOL         0.0610 
      4 C4         -9.0770  -11.6580    6.8550 C.2       1 MOL         0.5690 
      5 O1         -9.1130  -10.4630    7.0860 O.2       1 MOL        -0.5700 
      6 N1         -8.3190  -12.4930    7.5820 N.am      1 MOL        -0.7301 
      7 C5         -7.5290  -12.0920    8.7710 C.3       1 MOL         0.3611 
      8 C6         -8.4710  -11.7860    9.9530 C.3       1 MOL         0.2800 
      9 O2         -8.7350  -13.0140   10.6420 O.3       1 MOL        -0.6800 
     10 C7         -7.8710  -10.7350   10.9050 C.3       1 MOL         0.2800 
     11 O3         -8.8240  -10.4330   11.9390 O.3       1 MOL        -0.6800 
     12 C8         -7.5950   -9.4710   10.0560 C.3       1 MOL         0.2800 
     13 C9         -6.9780   -8.3220   10.8810 C.3       1 MOL         0.2800 
     14 O4         -5.7540   -8.7460   11.4980 O.3       1 MOL        -0.6800 
     15 O5         -6.6890   -9.7390    8.9480 O.3       1 MOL        -0.4300 
     16 C10        -6.4700  -11.0200    8.5070 C.2       1 MOL         0.5390 
     17 N2         -5.3290  -11.3270    7.9700 N.2       1 MOL        -0.5130 
     18 O6         -4.4080  -10.2340    7.8750 O.3       1 MOL        -0.0870 
     19 C11        -3.1220  -10.4320    7.4740 C.2       1 MOL         0.7800 
     20 O7         -2.3550   -9.5250    7.2060 O.2       1 MOL        -0.5700 
     21 N3         -2.8260  -11.7430    7.3890 N.am      1 MOL        -0.5470 
     22 C12        -1.7290  -12.4310    6.7890 C.ar      1 MOL         0.1170 
     23 C13        -1.9510  -13.7440    6.3760 C.ar      1 MOL        -0.1500 
     24 C14        -0.9460  -14.4590    5.7280 C.ar      1 MOL        -0.1500 
     25 C15         0.2870  -13.8590    5.4870 C.ar      1 MOL        -0.1500 
     26 C16         0.5190  -12.5500    5.9040 C.ar      1 MOL        -0.1500 
     27 C17        -0.4870  -11.8360    6.5560 C.ar      1 MOL        -0.1500 
     28 H1        -12.1510  -11.2530    3.3350 H         1 MOL         0.0000 
     29 H2        -12.2860  -12.6540    4.4090 H         1 MOL         0.0000 
     30 H3        -10.9930  -12.5840    3.1900 H         1 MOL         0.0000 
     31 H4        -11.2370  -10.6410    5.5320 H         1 MOL         0.0000 
     32 H5         -9.9220  -10.7130    4.3680 H         1 MOL         0.0000 
     33 H6         -9.2430  -12.9480    5.1600 H         1 MOL         0.0000 
     34 H7        -10.6080  -13.0060    6.2660 H         1 MOL         0.0000 
     35 H8         -8.3410  -13.4750    7.3380 H         1 MOL         0.3700 
     36 H9         -6.9520  -12.9730    9.0660 H         1 MOL         0.0000 
     37 H10        -9.4090  -11.3790    9.5610 H         1 MOL         0.0000 
     38 H11        -9.5180  -12.8330   11.2390 H         1 MOL         0.4000 
     39 H12        -6.9400  -11.1080   11.3440 H         1 MOL         0.0000 
     40 H13        -8.3090  -10.3360   12.8210 H         1 MOL         0.4000 
     41 H14        -8.5420   -9.1310    9.6280 H         1 MOL         0.0000 
     42 H15        -7.6870   -8.0010   11.6510 H         1 MOL         0.0000 
     43 H16        -6.7800   -7.4730   10.2220 H         1 MOL         0.0000 
     44 H17        -5.8960   -8.7170   12.5140 H         1 MOL         0.4000 
     45 H18        -3.6200  -12.3160    7.6300 H         1 MOL         0.3700 
     46 H19        -2.9210  -14.2120    6.5340 H         1 MOL         0.1500 
     47 H20        -1.1340  -15.4790    5.3960 H         1 MOL         0.1500 
     48 H21         1.0620  -14.4150    4.9640 H         1 MOL         0.1500 
     49 H22         1.4830  -12.0830    5.7120 H         1 MOL         0.1500 
     50 H23        -0.2940  -10.8140    6.8660 H         1 MOL         0.1500 
@<TRIPOS>BOND
     1    1    2 1    
     2    2    3 1    
     3    3    4 1    
     4    4    5 2    
     5    4    6 am   
     6    6    7 1    
     7    7    8 1    
     8    7   16 1    
     9    8    9 1    
    10    8   10 1    
    11   10   11 1    
    12   10   12 1    
    13   12   13 1    
    14   12   15 1    
    15   13   14 1    
    16   15   16 1    
    17   16   17 2    
    18   17   18 1    
    19   18   19 1    
    20   19   20 2    
    21   19   21 am   
    22   21   22 1    
    23   22   23 ar   
    24   22   27 ar   
    25   23   24 ar   
    26   24   25 ar   
    27   25   26 ar   
    28   26   27 ar   
    29    1   28 1    
    30    1   29 1    
    31    1   30 1    
    32    2   31 1    
    33    2   32 1    
    34    3   33 1    
    35    3   34 1    
    36    6   35 1    
    37    7   36 1    
    38    8   37 1    
    39    9   38 1    
    40   10   39 1    
    41   11   40 1    
    42   12   41 1    
    43   13   42 1    
    44   13   43 1    
    45   14   44 1    
    46   21   45 1    
    47   23   46 1    
    48   24   47 1    
    49   25   48 1    
    50   26   49 1    
    51   27   50 1    
@<TRIPOS>SUBSTRUCTURE
     1 MOL         1 PERM              0 ****  ****    0 ROOT 
@<TRIPOS>NORMAL
@<TRIPOS>ALT_TYPE
MMFF94_ALT_TYPE_SET 
MMFF94 1 CR 2 CR 3 CR 7 CR 8 CR 10 CR 12 CR 13 CR 22 CB 23 CB 24 CB \
25 CB 26 CB 27 CB 19 COO 4 C=ON 16 C=N 28 HC 29 HC 30 HC \
31 HC 32 HC 33 HC 34 HC 36 HC 37 HC 39 HC 41 HC 42 HC \
43 HC 46 HC 47 HC 48 HC 49 HC 50 HC 45 HNCC 35 HNCO 38 HOR \
40 HOR 44 HOR 5 O=CN 20 O=CN 15 OC=N 18 OC=O 9 OR 11 OR \
14 OR 17 N=C 6 NC=O 21 NC=O 
