#	Name:			2wca_ligand
#	Creating user name:	suminyi
#	Creation time:		Sun Sep 30 06:48:57 2018

#	Modifying user name:	suminyi
#	Modification time:	Sun Sep 30 06:48:57 2018

@<TRIPOS>MOLECULE
2wca_ligand
   50    51     1     1     0
SMALL
MMFF94_CHARGES


@<TRIPOS>ATOM
      1 C2        -11.6300  -11.9620    3.9150 C.3       1 NP6         0.0000 
      2 C1        -10.8660  -11.3430    5.0790 C.3       1 NP6         0.0000 
      3 C3         -9.7790  -12.2600    5.6170 C.3       1 NP6         0.0610 
      4 C4         -9.1080  -11.5830    6.8330 C.2       1 NP6         0.5690 
      5 O1         -9.3390  -10.4000    7.1020 O.2       1 NP6        -0.5700 
      6 N1         -8.2990  -12.3810    7.5430 N.am      1 NP6        -0.7301 
      7 C5         -7.5410  -11.9910    8.7700 C.3       1 NP6         0.3611 
      8 C6         -8.4910  -11.6570    9.9340 C.3       1 NP6         0.2800 
      9 O2         -8.7880  -12.8410   10.6560 O.3       1 NP6        -0.6800 
     10 C7         -7.8700  -10.6270   10.8640 C.3       1 NP6         0.2800 
     11 O3         -8.7600  -10.3290   11.9490 O.3       1 NP6        -0.6800 
     12 C8         -7.6560   -9.3410   10.0690 C.3       1 NP6         0.2800 
     13 C9         -7.1080   -8.1250   10.8560 C.3       1 NP6         0.2800 
     14 O4         -5.9500   -8.4830   11.6000 O.3       1 NP6        -0.6800 
     15 O5         -6.7550   -9.5630    8.9930 O.3       1 NP6        -0.4300 
     16 C10        -6.5490  -10.8350    8.5180 C.2       1 NP6         0.5390 
     17 N2         -5.4220  -11.0460    7.8390 N.2       1 NP6        -0.5130 
     18 O6         -4.5350  -10.0080    7.6740 O.3       1 NP6        -0.0870 
     19 C11        -3.2740  -10.4050    7.2640 C.2       1 NP6         0.7800 
     20 O7         -2.3680   -9.5680    7.1710 O.2       1 NP6        -0.5700 
     21 N3         -3.0940  -11.7220    6.9990 N.am      1 NP6        -0.5470 
     22 C12        -2.0090  -12.3690    6.5050 C.ar      1 NP6         0.1170 
     23 C13        -2.1290  -13.7370    6.2340 C.ar      1 NP6        -0.1500 
     24 C14        -1.0640  -14.4730    5.7020 C.ar      1 NP6        -0.1500 
     25 C15         0.1500  -13.8360    5.4220 C.ar      1 NP6        -0.1500 
     26 C16         0.2770  -12.4670    5.6660 C.ar      1 NP6        -0.1500 
     27 C17        -0.7940  -11.7390    6.2020 C.ar      1 NP6        -0.1500 
     28 H1        -12.4006  -11.2585    3.5668 H         1 NP6         0.0000 
     29 H2        -12.1084  -12.8957    4.2455 H         1 NP6         0.0000 
     30 H3        -10.9326  -12.1785    3.0924 H         1 NP6         0.0000 
     31 H4        -11.5760  -11.1242    5.8902 H         1 NP6         0.0000 
     32 H5        -10.4002  -10.4070    4.7370 H         1 NP6         0.0000 
     33 H6         -9.0277  -12.4406    4.8341 H         1 NP6         0.0000 
     34 H7        -10.2236  -13.2174    5.9265 H         1 NP6         0.0000 
     35 H8         -8.1930  -13.3224    7.2228 H         1 NP6         0.3700 
     36 H9         -6.9469  -12.8660    9.0723 H         1 NP6         0.0000 
     37 H10        -9.4241  -11.2443    9.5229 H         1 NP6         0.0000 
     38 H11        -9.3744  -12.6339   11.3742 H         1 NP6         0.4000 
     39 H12        -6.9127  -11.0024   11.2546 H         1 NP6         0.0000 
     40 H13        -8.9358  -11.1230   12.4401 H         1 NP6         0.4000 
     41 H14        -8.6353   -9.0557    9.6573 H         1 NP6         0.0000 
     42 H15        -7.8834   -7.7644   11.5478 H         1 NP6         0.0000 
     43 H16        -6.8478   -7.3248   10.1475 H         1 NP6         0.0000 
     44 H17        -5.6319   -7.7234   12.0737 H         1 NP6         0.4000 
     45 H18        -3.8812  -12.3057    7.1980 H         1 NP6         0.3700 
     46 H19        -3.0679  -14.2377    6.4408 H         1 NP6         0.1500 
     47 H20        -1.1793  -15.5332    5.5075 H         1 NP6         0.1500 
     48 H21         0.9838  -14.3998    5.0196 H         1 NP6         0.1500 
     49 H22         1.2101  -11.9640    5.4394 H         1 NP6         0.1500 
     50 H23        -0.6815  -10.6764    6.3844 H         1 NP6         0.1500 
@<TRIPOS>BOND
     1    1    2 1    
     2    2    3 1    
     3    3    4 1    
     4    4    5 2    
     5    4    6 am   
     6    6    7 1    
     7    7    8 1    
     8    7   16 1    
     9    8    9 1    
    10    8   10 1    
    11   10   11 1    
    12   10   12 1    
    13   12   13 1    
    14   12   15 1    
    15   13   14 1    
    16   15   16 1    
    17   16   17 2    
    18   17   18 1    
    19   18   19 1    
    20   19   20 2    
    21   19   21 am   
    22   21   22 1    
    23   22   23 ar   
    24   22   27 ar   
    25   23   24 ar   
    26   24   25 ar   
    27   25   26 ar   
    28   26   27 ar   
    29    1   28 1    
    30    1   29 1    
    31    1   30 1    
    32    2   31 1    
    33    2   32 1    
    34    3   33 1    
    35    3   34 1    
    36    6   35 1    
    37    7   36 1    
    38    8   37 1    
    39    9   38 1    
    40   10   39 1    
    41   11   40 1    
    42   12   41 1    
    43   13   42 1    
    44   13   43 1    
    45   14   44 1    
    46   21   45 1    
    47   23   46 1    
    48   24   47 1    
    49   25   48 1    
    50   26   49 1    
    51   27   50 1    
@<TRIPOS>SUBSTRUCTURE
     1 NP6         1 PERM              0 ****  ****    0 ROOT 
@<TRIPOS>NORMAL
@<TRIPOS>ALT_TYPE
MMFF94_ALT_TYPE_SET 
MMFF94 1 CR 2 CR 3 CR 7 CR 8 CR 10 CR 12 CR 13 CR 22 CB 23 CB 24 CB \
25 CB 26 CB 27 CB 19 COO 4 C=ON 16 C=N 28 HC 29 HC 30 HC \
31 HC 32 HC 33 HC 34 HC 36 HC 37 HC 39 HC 41 HC 42 HC \
43 HC 46 HC 47 HC 48 HC 49 HC 50 HC 45 HNCC 35 HNCO 38 HOR \
40 HOR 44 HOR 5 O=CN 20 O=CN 15 OC=N 18 OC=O 9 OR 11 OR \
14 OR 17 N=C 6 NC=O 21 NC=O 
