#	Name:			5c28_ligand
#	Creating user name:	suminyi
#	Creation time:		Sun Sep 30 06:48:45 2018

#	Modifying user name:	suminyi
#	Modification time:	Sun Sep 30 06:48:45 2018

@<TRIPOS>MOLECULE
5c28_ligand
   22    23     1     1     0
SMALL
MMFF94_CHARGES


@<TRIPOS>ATOM
      1 C2          4.3910   11.6160   43.0560 C.ar      1 MOL         0.4100 
      2 C3          3.9510   13.1040   41.3420 C.ar      1 MOL         0.5880 
      3 N4          3.2290   13.9100   42.1270 N.ar      1 MOL        -0.6200 
      4 C7          4.1320   13.4590   39.9290 C.3       1 MOL        -0.0680 
      5 C9          4.4490   14.8690   39.5240 C.3       1 MOL        -0.2000 
      6 C           3.1100   13.5230   43.3930 C.ar      1 MOL         0.4870 
      7 N           4.5250   11.9650   41.7660 N.ar      1 MOL        -0.6200 
      8 C1          3.6650   12.3890   43.9400 C.ar      1 MOL        -0.1435 
      9 N5          5.0070   10.4160   43.4630 N.pl3     1 MOL        -0.9000 
     10 C6          3.4580   12.0800   45.3910 C.3       1 MOL         0.1435 
     11 C8          3.0920   14.2910   39.2340 C.3       1 MOL        -0.2000 
     12 CL          2.1860   14.5780   44.3610 Cl        1 MOL        -0.1770 
     13 H1          4.6098   12.6204   39.4013 H         1 MOL         0.1000 
     14 H2          5.1530   15.0596   38.7005 H         1 MOL         0.1000 
     15 H3          4.5619   15.6493   40.2910 H         1 MOL         0.1000 
     16 H4          4.9329   10.1054   44.4423 H         1 MOL         0.4000 
     17 H5          5.5315    9.8493   42.7813 H         1 MOL         0.4000 
     18 H6          3.9728   11.1411   45.6430 H         1 MOL         0.0000 
     19 H7          2.3820   11.9739   45.5935 H         1 MOL         0.0000 
     20 H8          3.8672   12.8979   46.0021 H         1 MOL         0.0000 
     21 H9          2.2119   14.6480   39.7890 H         1 MOL         0.1000 
     22 H10         2.8030   14.0582   38.1985 H         1 MOL         0.1000 
@<TRIPOS>BOND
     1    7    1 ar   
     2    1    8 ar   
     3    1    9 1    
     4    2    3 ar   
     5    2    4 1    
     6    2    7 ar   
     7    3    6 ar   
     8    4    5 1    
     9    4   11 1    
    10    5   11 1    
    11    6    8 ar   
    12    6   12 1    
    13    8   10 1    
    14    4   13 1    
    15    5   14 1    
    16    5   15 1    
    17    9   16 1    
    18    9   17 1    
    19   10   18 1    
    20   10   19 1    
    21   10   20 1    
    22   11   21 1    
    23   11   22 1    
@<TRIPOS>SUBSTRUCTURE
     1 MOL         1 PERM              0 ****  ****    0 ROOT 
@<TRIPOS>NORMAL
@<TRIPOS>ALT_TYPE
MMFF94_ALT_TYPE_SET 
MMFF94 4 CR3R 5 CR3R 11 CR3R 10 CR 1 CB 2 CB 6 CB 8 CB 13 HC 14 HC 15 HC \
18 HC 19 HC 20 HC 21 HC 22 HC 16 HNCC 17 HNCC 3 NPYD \
7 NPYD 9 NC=N 12 CL 
