#	Name:			5c28_ligand
#	Creating user name:	suminyi
#	Creation time:		Sun Sep 30 06:51:10 2018

#	Modifying user name:	suminyi
#	Modification time:	Sun Sep 30 06:51:10 2018

@<TRIPOS>MOLECULE
5c28_ligand
   22    23     1     1     0
SMALL
MMFF94_CHARGES


@<TRIPOS>ATOM
      1 C2          4.5480   11.5870   42.9820 C.ar      1 MOL         0.4100 
      2 C3          4.0170   13.0630   41.3820 C.ar      1 MOL         0.5880 
      3 N4          3.2450   13.8210   42.1710 N.ar      1 MOL        -0.6200 
      4 C7          4.2180   13.5300   39.9810 C.3       1 MOL        -0.0680 
      5 C9          4.5270   14.9700   39.6790 C.3       1 MOL        -0.2000 
      6 C           3.1340   13.3860   43.4370 C.ar      1 MOL         0.4870 
      7 N           4.7020   11.9740   41.7300 N.ar      1 MOL        -0.6200 
      8 C1          3.7790   12.2530   43.9180 C.ar      1 MOL        -0.1435 
      9 N5          5.2890   10.5140   43.2500 N.pl3     1 MOL        -0.9000 
     10 C6          3.6470   11.8210   45.3820 C.3       1 MOL         0.1435 
     11 C8          3.2280   14.3680   39.2170 C.3       1 MOL        -0.2000 
     12 Cl          2.1580   14.3760   44.4630 Cl        1 MOL        -0.1770 
     13 H1          4.7560   12.7870   39.4000 H         1 MOL         0.1000 
     14 H2          5.3030   15.1720   38.9470 H         1 MOL         0.1000 
     15 H3          4.5130   15.6700   40.5090 H         1 MOL         0.1000 
     16 H4          5.4770   10.2760   44.2140 H         1 MOL         0.4000 
     17 H5          5.9400   10.2300   42.5330 H         1 MOL         0.4000 
     18 H6          4.1630   10.8820   45.5910 H         1 MOL         0.0000 
     19 H7          2.5960   11.6910   45.6500 H         1 MOL         0.0000 
     20 H8          4.0650   12.5820   46.0450 H         1 MOL         0.0000 
     21 H9          2.3060   14.6450   39.7200 H         1 MOL         0.1000 
     22 H10         3.1130   14.1670   38.1560 H         1 MOL         0.1000 
@<TRIPOS>BOND
     1    7    1 ar   
     2    1    8 ar   
     3    1    9 1    
     4    2    3 ar   
     5    2    4 1    
     6    2    7 ar   
     7    3    6 ar   
     8    4    5 1    
     9    4   11 1    
    10    5   11 1    
    11    6    8 ar   
    12    6   12 1    
    13    8   10 1    
    14    4   13 1    
    15    5   14 1    
    16    5   15 1    
    17    9   16 1    
    18    9   17 1    
    19   10   18 1    
    20   10   19 1    
    21   10   20 1    
    22   11   21 1    
    23   11   22 1    
@<TRIPOS>SUBSTRUCTURE
     1 MOL         1 PERM              0 ****  ****    0 ROOT 
@<TRIPOS>NORMAL
@<TRIPOS>ALT_TYPE
MMFF94_ALT_TYPE_SET 
MMFF94 4 CR3R 5 CR3R 11 CR3R 10 CR 1 CB 2 CB 6 CB 8 CB 13 HC 14 HC 15 HC \
18 HC 19 HC 20 HC 21 HC 22 HC 16 HNCC 17 HNCC 3 NPYD \
7 NPYD 9 NC=N 12 CL 
