#	Name:			4agn_ligand
#	Creating user name:	suminyi
#	Creation time:		Sun Sep 30 06:48:55 2018

#	Modifying user name:	suminyi
#	Modification time:	Sun Sep 30 06:48:55 2018

@<TRIPOS>MOLECULE
4agn_ligand
   53    54     1     1     0
SMALL
MMFF94_CHARGES


@<TRIPOS>ATOM
      1 C01        91.4340   93.5340  -45.2570 C.ar      1 NXG         0.0730 
      2 C1         90.7660   95.8310  -44.8540 C.ar      1 NXG        -0.1435 
      3 N1         90.7020   98.2900  -44.6610 N.4       1 NXG        -0.9590 
      4 O1         90.9900   96.8240  -42.6710 O.3       1 NXG        -0.5325 
      5 C02        91.8080   93.4050  -43.9090 C.ar      1 NXG        -0.1500 
      6 C2         90.1700   97.1080  -45.3810 C.3       1 NXG         0.6465 
      7 N2         92.0850  102.4030  -44.3390 N.4       1 NXG        -0.9590 
      8 C03        89.7100   99.4240  -44.7190 C.3       1 NXG         0.5030 
      9 C3         90.9080   94.7520  -45.7280 C.ar      1 NXG        -0.1500 
     10 C4         91.6500   94.5140  -43.0550 C.ar      1 NXG         0.0810 
     11 C7         91.1290   95.7400  -43.4870 C.ar      1 NXG         0.0825 
     12 C8         90.2630  100.6250  -43.9720 C.3       1 NXG         0.0000 
     13 C10        91.5230  101.0190  -44.7370 C.3       1 NXG         0.5030 
     14 C11        93.1810  102.4220  -43.2800 C.3       1 NXG         0.5030 
     15 C12        94.1450  103.5810  -43.4820 C.3       1 NXG         0.0000 
     16 C13        90.9370  103.3670  -43.9740 C.3       1 NXG         0.5030 
     17 C14        90.9680  103.6760  -42.4870 C.3       1 NXG         0.0000 
     18 C15        92.5920   99.9270  -44.5600 C.3       1 NXG         0.0000 
     19 C16        92.0450   98.6620  -45.2120 C.3       1 NXG         0.5030 
     20 C17        91.5740   92.4640  -46.1940 C.1       1 NXG        -0.0730 
     21 C18        91.7020   91.5680  -46.9810 C.1       1 NXG        -0.2000 
     22 C19        91.8600   90.4730  -47.9390 C.3       1 NXG         0.4800 
     23 O2         91.9170   90.9840  -49.2660 O.3       1 NXG        -0.6800 
     24 I2         92.1750   94.3250  -41.0000 I         1 NXG        -0.0810 
     25 H1         90.8259   98.0407  -43.6922 H         1 NXG         0.4500 
     26 H2         91.2756   96.5973  -41.7937 H         1 NXG         0.4500 
     27 H3         92.2100   92.4709  -43.5337 H         1 NXG         0.1500 
     28 H4         89.0780   97.0728  -45.2535 H         1 NXG         0.0000 
     29 H5         90.4116   97.2014  -46.4501 H         1 NXG         0.0000 
     30 H6         92.5144  102.7696  -45.1740 H         1 NXG         0.4500 
     31 H7         88.7648   99.1074  -44.2539 H         1 NXG         0.0000 
     32 H8         89.5285   99.6980  -45.7687 H         1 NXG         0.0000 
     33 H9         90.6141   94.8516  -46.7666 H         1 NXG         0.1500 
     34 H10        90.5090  100.3554  -42.9343 H         1 NXG         0.0000 
     35 H11        89.5356  101.4501  -43.9738 H         1 NXG         0.0000 
     36 H12        91.2595  101.0689  -45.8038 H         1 NXG         0.0000 
     37 H13        93.7435  101.4782  -43.3334 H         1 NXG         0.0000 
     38 H14        92.7153  102.5157  -42.2879 H         1 NXG         0.0000 
     39 H15        94.9169  103.5566  -42.6987 H         1 NXG         0.0000 
     40 H16        93.5936  104.5310  -43.4239 H         1 NXG         0.0000 
     41 H17        94.6218  103.4936  -44.4694 H         1 NXG         0.0000 
     42 H18        89.9744  102.8994  -44.2284 H         1 NXG         0.0000 
     43 H19        91.0522  104.3017  -44.5423 H         1 NXG         0.0000 
     44 H20        90.1461  104.3634  -42.2382 H         1 NXG         0.0000 
     45 H21        91.9290  104.1454  -42.2300 H         1 NXG         0.0000 
     46 H22        90.8513  102.7430  -41.9161 H         1 NXG         0.0000 
     47 H23        92.7792   99.7507  -43.4905 H         1 NXG         0.0000 
     48 H24        93.5282  100.2310  -45.0509 H         1 NXG         0.0000 
     49 H25        91.9515   98.8311  -46.2949 H         1 NXG         0.0000 
     50 H26        92.7468   97.8349  -45.0292 H         1 NXG         0.0000 
     51 H27        91.0048   89.7868  -47.8506 H         1 NXG         0.0000 
     52 H28        92.7906   89.9294  -47.7190 H         1 NXG         0.0000 
     53 H29        92.0195   90.2641  -49.8772 H         1 NXG         0.4000 
@<TRIPOS>BOND
     1    1    5 ar   
     2    9    1 ar   
     3    1   20 1    
     4    6    2 1    
     5    2    9 ar   
     6    2   11 ar   
     7    3    6 1    
     8    8    3 1    
     9    3   19 1    
    10   11    4 1    
    11   10    5 ar   
    12   13    7 1    
    13    7   14 1    
    14    7   16 1    
    15   12    8 1    
    16   11   10 ar   
    17   10   24 1    
    18   12   13 1    
    19   13   18 1    
    20   14   15 1    
    21   16   17 1    
    22   18   19 1    
    23   20   21 3    
    24   21   22 1    
    25   22   23 1    
    26    3   25 1    
    27    4   26 1    
    28    5   27 1    
    29    6   28 1    
    30    6   29 1    
    31    7   30 1    
    32    8   31 1    
    33    8   32 1    
    34    9   33 1    
    35   12   34 1    
    36   12   35 1    
    37   13   36 1    
    38   14   37 1    
    39   14   38 1    
    40   15   39 1    
    41   15   40 1    
    42   15   41 1    
    43   16   42 1    
    44   16   43 1    
    45   17   44 1    
    46   17   45 1    
    47   17   46 1    
    48   18   47 1    
    49   18   48 1    
    50   19   49 1    
    51   19   50 1    
    52   22   51 1    
    53   22   52 1    
    54   23   53 1    
@<TRIPOS>SUBSTRUCTURE
     1 NXG         1 PERM              0 ****  ****    0 ROOT 
@<TRIPOS>NORMAL
@<TRIPOS>ALT_TYPE
MMFF94_ALT_TYPE_SET 
MMFF94 6 CR 8 CR 12 CR 13 CR 14 CR 15 CR 16 CR 17 CR 18 CR 19 CR 22 CR \
1 CB 2 CB 5 CB 9 CB 10 CB 11 CB 20 CSP 21 CSP 27 HC 28 HC \
29 HC 31 HC 32 HC 33 HC 34 HC 35 HC 36 HC 37 HC 38 HC \
39 HC 40 HC 41 HC 42 HC 43 HC 44 HC 45 HC 46 HC 47 HC \
48 HC 49 HC 50 HC 51 HC 52 HC 25 HNR+ 30 HNR+ 26 HOCC \
53 HOR 4 OC=C 23 OR 3 NR+ 7 NR+ 24 I 
