#	Name:			4agn_ligand
#	Creating user name:	suminyi
#	Creation time:		Sun Sep 30 06:51:11 2018

#	Modifying user name:	suminyi
#	Modification time:	Sun Sep 30 06:51:11 2018

@<TRIPOS>MOLECULE
4agn_ligand
   53    54     1     1     0
SMALL
MMFF94_CHARGES


@<TRIPOS>ATOM
      1 C01        91.3460   93.4310  -45.3550 C.ar      1 MOL         0.0730 
      2 C1         90.7740   95.7150  -44.7530 C.ar      1 MOL        -0.1435 
      3 N1         90.7230   98.2320  -44.5070 N.4       1 MOL        -0.9590 
      4 O1         91.0920   96.4130  -42.4730 O.3       1 MOL        -0.5325 
      5 C02        91.7630   93.1880  -44.0520 C.ar      1 MOL        -0.1500 
      6 C2         90.0900   97.0160  -45.1390 C.3       1 MOL         0.6465 
      7 N2         92.2990  102.4280  -44.1950 N.4       1 MOL        -0.9590 
      8 C03        89.7520   99.3890  -44.4070 C.3       1 MOL         0.5030 
      9 C3         90.8410   94.6850  -45.6990 C.ar      1 MOL        -0.1500 
     10 C4         91.7160   94.2090  -43.1120 C.ar      1 MOL         0.0810 
     11 C7         91.2260   95.4690  -43.4490 C.ar      1 MOL         0.0825 
     12 C8         90.3920  100.6470  -43.7830 C.3       1 MOL         0.0000 
     13 C10        91.6470  101.0900  -44.5840 C.3       1 MOL         0.5030 
     14 C11        93.3850  102.3370  -43.1260 C.3       1 MOL         0.5030 
     15 C12        94.3070  103.5720  -43.0990 C.3       1 MOL         0.0000 
     16 C13        91.2860  103.5410  -43.8980 C.3       1 MOL         0.5030 
     17 C14        90.7970  103.6770  -42.4350 C.3       1 MOL         0.0000 
     18 C15        92.6390   99.8980  -44.6330 C.3       1 MOL         0.0000 
     19 C16        91.9950   98.6290  -45.2300 C.3       1 MOL         0.5030 
     20 C17        91.4300   92.3800  -46.3330 C.1       1 MOL        -0.0730 
     21 C18        91.5220   91.4880  -47.1640 C.1       1 MOL        -0.2000 
     22 C19        91.6400   90.4310  -48.1810 C.3       1 MOL         0.4800 
     23 O2         91.8270   91.0440  -49.4630 O.3       1 MOL        -0.6800 
     24 I2         92.3630   93.7840  -41.1710 I         1 MOL        -0.0810 
     25 H1         90.9580   97.9030  -43.5290 H         1 MOL         0.4500 
     26 H2         91.1340   95.9440  -41.6070 H         1 MOL         0.4500 
     27 H3         92.0940   92.1960  -43.7590 H         1 MOL         0.1500 
     28 H4         89.0470   96.9690  -44.8090 H         1 MOL         0.0000 
     29 H5         90.1050   97.1490  -46.2250 H         1 MOL         0.0000 
     30 H6         92.8320  102.7280  -45.0410 H         1 MOL         0.4500 
     31 H7         88.8940   99.0660  -43.8030 H         1 MOL         0.0000 
     32 H8         89.3920   99.6120  -45.4160 H         1 MOL         0.0000 
     33 H9         90.4520   94.8370  -46.7030 H         1 MOL         0.1500 
     34 H10        90.6540  100.4500  -42.7390 H         1 MOL         0.0000 
     35 H11        89.6310  101.4300  -43.7850 H         1 MOL         0.0000 
     36 H12        91.3020  101.2600  -45.6100 H         1 MOL         0.0000 
     37 H13        94.0090  101.4650  -43.3410 H         1 MOL         0.0000 
     38 H14        92.9090  102.1800  -42.1540 H         1 MOL         0.0000 
     39 H15        95.1030  103.4330  -42.3620 H         1 MOL         0.0000 
     40 H16        93.7640  104.4830  -42.8400 H         1 MOL         0.0000 
     41 H17        94.7860  103.7220  -44.0700 H         1 MOL         0.0000 
     42 H18        90.4260  103.3840  -44.5550 H         1 MOL         0.0000 
     43 H19        91.7530  104.4870  -44.1890 H         1 MOL         0.0000 
     44 H20        89.9680  104.3870  -42.3810 H         1 MOL         0.0000 
     45 H21        91.5880  104.0570  -41.7850 H         1 MOL         0.0000 
     46 H22        90.4450  102.7330  -42.0190 H         1 MOL         0.0000 
     47 H23        92.9890   99.6660  -43.6230 H         1 MOL         0.0000 
     48 H24        93.5180  100.1680  -45.2200 H         1 MOL         0.0000 
     49 H25        91.7500   98.7860  -46.2860 H         1 MOL         0.0000 
     50 H26        92.6940   97.7860  -45.1680 H         1 MOL         0.0000 
     51 H27        90.7250   89.8290  -48.1750 H         1 MOL         0.0000 
     52 H28        92.4900   89.7860  -47.9360 H         1 MOL         0.0000 
     53 H29        92.6940   91.5360  -49.4650 H         1 MOL         0.4000 
@<TRIPOS>BOND
     1    1    5 ar   
     2    9    1 ar   
     3    1   20 1    
     4    6    2 1    
     5    2    9 ar   
     6    2   11 ar   
     7    3    6 1    
     8    8    3 1    
     9    3   19 1    
    10   11    4 1    
    11   10    5 ar   
    12   13    7 1    
    13    7   14 1    
    14    7   16 1    
    15   12    8 1    
    16   11   10 ar   
    17   10   24 1    
    18   12   13 1    
    19   13   18 1    
    20   14   15 1    
    21   16   17 1    
    22   18   19 1    
    23   20   21 3    
    24   21   22 1    
    25   22   23 1    
    26    3   25 1    
    27    4   26 1    
    28    5   27 1    
    29    6   28 1    
    30    6   29 1    
    31    7   30 1    
    32    8   31 1    
    33    8   32 1    
    34    9   33 1    
    35   12   34 1    
    36   12   35 1    
    37   13   36 1    
    38   14   37 1    
    39   14   38 1    
    40   15   39 1    
    41   15   40 1    
    42   15   41 1    
    43   16   42 1    
    44   16   43 1    
    45   17   44 1    
    46   17   45 1    
    47   17   46 1    
    48   18   47 1    
    49   18   48 1    
    50   19   49 1    
    51   19   50 1    
    52   22   51 1    
    53   22   52 1    
    54   23   53 1    
@<TRIPOS>SUBSTRUCTURE
     1 MOL         1 PERM              0 ****  ****    0 ROOT 
@<TRIPOS>NORMAL
@<TRIPOS>ALT_TYPE
MMFF94_ALT_TYPE_SET 
MMFF94 6 CR 8 CR 12 CR 13 CR 14 CR 15 CR 16 CR 17 CR 18 CR 19 CR 22 CR \
1 CB 2 CB 5 CB 9 CB 10 CB 11 CB 20 CSP 21 CSP 27 HC 28 HC \
29 HC 31 HC 32 HC 33 HC 34 HC 35 HC 36 HC 37 HC 38 HC \
39 HC 40 HC 41 HC 42 HC 43 HC 44 HC 45 HC 46 HC 47 HC \
48 HC 49 HC 50 HC 51 HC 52 HC 25 HNR+ 30 HNR+ 26 HOCC \
53 HOR 4 OC=C 23 OR 3 NR+ 7 NR+ 24 I 
