#	Name:			3fur_ligand
#	Creating user name:	suminyi
#	Creation time:		Sun Sep 30 06:50:56 2018

#	Modifying user name:	suminyi
#	Modification time:	Sun Sep 30 06:50:56 2018

@<TRIPOS>MOLECULE
3fur_ligand
   43    46     1     1     0
SMALL
MMFF94_CHARGES


@<TRIPOS>ATOM
      1 Cl32        2.3320    4.9310   27.2060 Cl        1 MOL        -0.1770 
      2 C31         3.8430    4.9180   28.0530 C.ar      1 MOL         0.1770 
      3 C30         3.7750    4.9660   29.4360 C.ar      1 MOL        -0.1500 
      4 C28         4.9290    4.9480   30.2070 C.ar      1 MOL         0.1770 
      5 Cl29        4.8100    4.8770   31.9290 Cl        1 MOL        -0.1770 
      6 C27         6.1690    4.9930   29.5840 C.ar      1 MOL        -0.1500 
      7 C26         6.2500    5.0030   28.1940 C.ar      1 MOL        -0.1500 
      8 C25         5.0890    4.9030   27.4200 C.ar      1 MOL        -0.0090 
      9 S20         5.2240    4.7120   25.6550 S.o2      1 MOL         1.4470 
     10 O21         4.2010    3.8370   25.1030 O.2       1 MOL        -0.6500 
     11 O22         6.5790    4.7130   25.1410 O.2       1 MOL        -0.6500 
     12 N23         4.5110    6.1370   25.1670 N.am      1 MOL        -0.7570 
     13 C13         4.9980    7.4090   25.1790 C.ar      1 MOL         0.1990 
     14 C14         4.1570    8.4090   24.7070 C.ar      1 MOL        -0.1500 
     15 C15         4.5830    9.7330   24.6840 C.ar      1 MOL         0.1770 
     16 Cl16        3.4980   10.9170   24.0510 Cl        1 MOL        -0.1770 
     17 C17         5.8500   10.0800   25.1570 C.ar      1 MOL         0.0825 
     18 C18         6.6940    9.0760   25.6390 C.ar      1 MOL         0.1770 
     19 Cl19        8.2740    9.4580   26.2370 Cl        1 MOL        -0.1770 
     20 C12         6.2710    7.7460   25.6420 C.ar      1 MOL        -0.1500 
     21 O11         6.2680   11.3980   25.1290 O.3       1 MOL        -0.1650 
     22 C8          6.2900   12.2290   26.2360 C.ar      1 MOL         0.0825 
     23 C7          6.0680   11.7490   27.5240 C.ar      1 MOL        -0.1500 
     24 C6          6.1070   12.6470   28.5860 C.ar      1 MOL         0.0000 
     25 C1          5.9340   12.1770   29.8890 C.ar      1 MOL        -0.1500 
     26 C9          6.5470   13.5910   26.0680 C.ar      1 MOL         0.1600 
     27 N10         6.5510   14.4840   27.0840 N.ar      1 MOL        -0.6200 
     28 C5          6.3340   14.0110   28.3360 C.ar      1 MOL         0.3100 
     29 C4          6.3710   14.8880   29.4180 C.ar      1 MOL        -0.1500 
     30 C3          6.2040   14.4220   30.7230 C.ar      1 MOL        -0.1500 
     31 C2          5.9960   13.0660   30.9570 C.ar      1 MOL        -0.1500 
     32 H1          2.8110    5.0080   29.9100 H         1 MOL         0.1500 
     33 H2          7.0720    5.0140   30.1910 H         1 MOL         0.1500 
     34 H3          7.2280    5.0780   27.7230 H         1 MOL         0.1500 
     35 H4          3.5850    6.0150   25.5340 H         1 MOL         0.4200 
     36 H5          3.1620    8.1770   24.3370 H         1 MOL         0.1500 
     37 H6          6.9580    6.9960   26.0180 H         1 MOL         0.1500 
     38 H7          5.8970   10.6940   27.7130 H         1 MOL         0.1500 
     39 H8          5.7550   11.1190   30.0760 H         1 MOL         0.1500 
     40 H9          6.7440   14.0020   25.0800 H         1 MOL         0.1500 
     41 H10         6.5490   15.9460   29.2420 H         1 MOL         0.1500 
     42 H11         6.2430   15.1160   31.5620 H         1 MOL         0.1500 
     43 H12         5.8760   12.7000   31.9750 H         1 MOL         0.1500 
@<TRIPOS>BOND
     1    1    2 1    
     2    2    3 ar   
     3    2    8 ar   
     4    3    4 ar   
     5    4    5 1    
     6    4    6 ar   
     7    6    7 ar   
     8    7    8 ar   
     9    8    9 1    
    10    9   10 2    
    11    9   11 2    
    12    9   12 am   
    13   12   13 1    
    14   13   14 ar   
    15   13   20 ar   
    16   14   15 ar   
    17   15   16 1    
    18   15   17 ar   
    19   17   18 ar   
    20   17   21 1    
    21   18   19 1    
    22   18   20 ar   
    23   21   22 1    
    24   22   23 ar   
    25   22   26 ar   
    26   23   24 ar   
    27   24   25 ar   
    28   24   28 ar   
    29   25   31 ar   
    30   26   27 ar   
    31   27   28 ar   
    32   28   29 ar   
    33   29   30 ar   
    34   30   31 ar   
    35    3   32 1    
    36    6   33 1    
    37    7   34 1    
    38   12   35 1    
    39   14   36 1    
    40   20   37 1    
    41   23   38 1    
    42   25   39 1    
    43   26   40 1    
    44   29   41 1    
    45   30   42 1    
    46   31   43 1    
@<TRIPOS>SUBSTRUCTURE
     1 MOL         1 PERM              0 ****  ****    0 ROOT 
@<TRIPOS>NORMAL
@<TRIPOS>ALT_TYPE
MMFF94_ALT_TYPE_SET 
MMFF94 2 CB 3 CB 4 CB 6 CB 7 CB 8 CB 13 CB 14 CB 15 CB 17 CB 18 CB 20 CB \
22 CB 23 CB 24 CB 25 CB 26 CB 28 CB 29 CB 30 CB 31 CB \
32 HC 33 HC 34 HC 36 HC 37 HC 38 HC 39 HC 40 HC 41 HC \
42 HC 43 HC 35 HNCC 10 O2S 11 O2S 21 OC=C 27 NPYD 12 NSO2 \
9 SO2N 1 CL 5 CL 16 CL 19 CL 
