#	Name:			4cra_ligand
#	Creating user name:	suminyi
#	Creation time:		Sun Sep 30 06:51:13 2018

#	Modifying user name:	suminyi
#	Modification time:	Sun Sep 30 06:51:13 2018

@<TRIPOS>MOLECULE
4cra_ligand
   63    67     1     1     0
SMALL
MMFF94_CHARGES


@<TRIPOS>ATOM
      1 C25       -26.3710  -55.6190   -9.7170 C.2       1 MOL         0.5438 
      2 O26       -25.3590  -56.2600   -9.9310 O.2       1 MOL        -0.5700 
      3 C27       -27.2860  -55.8920   -8.5550 C.ar      1 MOL         0.0862 
      4 C28       -28.4220  -55.1060   -8.3090 C.ar      1 MOL        -0.1500 
      5 C29       -29.2630  -55.4030   -7.2460 C.ar      1 MOL        -0.1500 
      6 C30       -29.0070  -56.4970   -6.4330 C.ar      1 MOL         0.1170 
      7 C31       -27.8810  -57.2880   -6.6410 C.ar      1 MOL         0.0284 
      8 C32       -27.0180  -56.9710   -7.7010 C.ar      1 MOL        -0.1500 
      9 C33       -27.6620  -58.4300   -5.7780 C.2       1 MOL         0.0483 
     10 C34       -28.5830  -58.6790   -4.7920 C.2       1 MOL        -0.1356 
     11 C35       -29.7790  -57.8730   -4.5780 C.2       1 MOL         0.6156 
     12 O36       -30.6190  -58.1130   -3.7460 O.2       1 MOL        -0.5700 
     13 N37       -29.9110  -56.8360   -5.4020 N.am      1 MOL        -0.5470 
     14 O38       -26.6100  -59.2250   -5.9890 O.3       1 MOL        -0.5267 
     15 N24       -26.7250  -54.5910  -10.5040 N.am      1 MOL        -0.7301 
     16 C21       -26.0350  -54.1180  -11.7250 C.3       1 MOL         0.3611 
     17 C22       -25.2010  -52.8630  -11.4720 C.2       1 MOL         0.5690 
     18 O23       -25.3170  -52.1960  -10.4660 O.2       1 MOL        -0.5700 
     19 C20       -27.0720  -53.7880  -12.8280 C.3       1 MOL         0.1435 
     20 C17       -27.9970  -54.9300  -13.2130 C.ar      1 MOL        -0.1435 
     21 C16       -29.3750  -54.8190  -13.0060 C.ar      1 MOL        -0.1500 
     22 C18       -27.4880  -56.0590  -13.8600 C.ar      1 MOL        -0.1500 
     23 C15       -30.2330  -55.8280  -13.4400 C.ar      1 MOL        -0.1500 
     24 C19       -28.3460  -57.0740  -14.2820 C.ar      1 MOL        -0.1500 
     25 C14       -29.7190  -56.9560  -14.0750 C.ar      1 MOL        -0.1500 
     26 C1        -19.7920  -50.6600  -11.7130 C.ar      1 MOL         0.3100 
     27 C2        -19.3200  -51.9660  -11.6680 C.ar      1 MOL        -0.1500 
     28 C3        -20.1650  -53.0480  -11.8730 C.ar      1 MOL        -0.1500 
     29 C4        -21.5140  -52.8240  -12.1130 C.ar      1 MOL        -0.1500 
     30 C5        -22.0260  -51.5200  -12.1510 C.ar      1 MOL        -0.1435 
     31 C6        -21.1560  -50.4290  -11.9590 C.ar      1 MOL         0.0000 
     32 N7        -18.9090  -49.6710  -11.5180 N.ar      1 MOL        -0.6200 
     33 C8        -19.3390  -48.4230  -11.5930 C.ar      1 MOL         0.4100 
     34 C9        -20.6530  -48.0770  -11.8420 C.ar      1 MOL        -0.1500 
     35 N10       -18.3550  -47.5350  -11.4720 N.pl3     1 MOL        -0.9000 
     36 C11       -21.5890  -49.0940  -12.0250 C.ar      1 MOL        -0.1500 
     37 C12       -23.5090  -51.2760  -12.3940 C.3       1 MOL         0.4436 
     38 N13       -24.3560  -52.4840  -12.4490 N.am      1 MOL        -0.7301 
     39 H1        -28.6880  -54.2550   -8.9330 H         1 MOL         0.1500 
     40 H2        -30.1370  -54.7800   -7.0770 H         1 MOL         0.1500 
     41 H3        -26.1440  -57.5870   -7.8890 H         1 MOL         0.1500 
     42 H4        -28.5010  -59.5090   -4.1040 H         1 MOL         0.1500 
     43 H5        -30.7600  -56.2850   -5.3290 H         1 MOL         0.3700 
     44 H6        -26.8430  -60.0640   -5.5450 H         1 MOL         0.4500 
     45 H7        -27.5730  -54.1060  -10.2690 H         1 MOL         0.3700 
     46 H8        -25.3480  -54.8900  -12.0840 H         1 MOL         0.0000 
     47 H9        -26.5540  -53.4610  -13.7330 H         1 MOL         0.0000 
     48 H10       -27.6770  -52.9420  -12.4920 H         1 MOL         0.0000 
     49 H11       -29.8000  -53.9360  -12.5310 H         1 MOL         0.1500 
     50 H12       -26.4240  -56.1410  -14.0660 H         1 MOL         0.1500 
     51 H13       -31.3090  -55.7260  -13.3110 H         1 MOL         0.1500 
     52 H14       -27.9520  -57.9480  -14.7970 H         1 MOL         0.1500 
     53 H15       -30.3960  -57.7310  -14.4290 H         1 MOL         0.1500 
     54 H16       -18.2610  -52.1180  -11.5070 H         1 MOL         0.1500 
     55 H17       -19.7630  -54.0570  -11.8700 H         1 MOL         0.1500 
     56 H18       -22.1540  -53.6800  -12.2920 H         1 MOL         0.1500 
     57 H19       -20.9190  -47.0320  -11.9350 H         1 MOL         0.1500 
     58 H20       -18.4860  -46.7310  -10.8730 H         1 MOL         0.4000 
     59 H21       -17.4740  -47.9910  -11.2530 H         1 MOL         0.4000 
     60 H22       -22.6190  -48.8300  -12.2500 H         1 MOL         0.1500 
     61 H23       -23.6320  -50.7260  -13.3340 H         1 MOL         0.0000 
     62 H24       -23.8540  -50.6350  -11.5810 H         1 MOL         0.0000 
     63 H25       -24.3040  -53.0220  -13.2980 H         1 MOL         0.3700 
@<TRIPOS>BOND
     1    1    2 2    
     2    1    3 1    
     3   15    1 am   
     4    3    4 ar   
     5    3    8 ar   
     6    4    5 ar   
     7    5    6 ar   
     8    7    6 ar   
     9    6   13 1    
    10    8    7 ar   
    11    7    9 1    
    12    9   10 2    
    13    9   14 1    
    14   10   11 1    
    15   11   12 2    
    16   13   11 am   
    17   16   15 1    
    18   17   16 1    
    19   16   19 1    
    20   17   18 2    
    21   38   17 am   
    22   19   20 1    
    23   20   21 ar   
    24   20   22 ar   
    25   21   23 ar   
    26   22   24 ar   
    27   23   25 ar   
    28   24   25 ar   
    29   26   27 ar   
    30   31   26 ar   
    31   26   32 ar   
    32   28   27 ar   
    33   29   28 ar   
    34   30   29 ar   
    35   30   31 ar   
    36   37   30 1    
    37   31   36 ar   
    38   32   33 ar   
    39   34   33 ar   
    40   33   35 1    
    41   36   34 ar   
    42   37   38 1    
    43    4   39 1    
    44    5   40 1    
    45    8   41 1    
    46   10   42 1    
    47   13   43 1    
    48   14   44 1    
    49   15   45 1    
    50   16   46 1    
    51   19   47 1    
    52   19   48 1    
    53   21   49 1    
    54   22   50 1    
    55   23   51 1    
    56   24   52 1    
    57   25   53 1    
    58   27   54 1    
    59   28   55 1    
    60   29   56 1    
    61   34   57 1    
    62   35   58 1    
    63   35   59 1    
    64   36   60 1    
    65   37   61 1    
    66   37   62 1    
    67   38   63 1    
@<TRIPOS>SUBSTRUCTURE
     1 MOL         1 PERM              0 ****  ****    0 ROOT 
@<TRIPOS>NORMAL
@<TRIPOS>ALT_TYPE
MMFF94_ALT_TYPE_SET 
MMFF94 16 CR 19 CR 37 CR 3 CB 4 CB 5 CB 6 CB 7 CB 8 CB 20 CB 21 CB 22 CB \
23 CB 24 CB 25 CB 26 CB 27 CB 28 CB 29 CB 30 CB 31 CB \
33 CB 34 CB 36 CB 11 C=ON 1 C=ON 17 C=ON 9 C=C 10 C=C \
39 HC 40 HC 41 HC 42 HC 46 HC 47 HC 48 HC 49 HC 50 HC \
51 HC 52 HC 53 HC 54 HC 55 HC 56 HC 57 HC 60 HC 61 HC \
62 HC 43 HNCC 58 HNCC 59 HNCC 45 HNCO 63 HNCO 44 HOCC \
12 O=CN 2 O=CN 18 O=CN 14 OC=C 32 NPYD 13 NC=O 15 NC=O \
38 NC=O 35 NC=N 
