#	Name:			4cra_ligand
#	Creating user name:	suminyi
#	Creation time:		Sun Sep 30 06:48:45 2018

#	Modifying user name:	suminyi
#	Modification time:	Sun Sep 30 06:48:47 2018

@<TRIPOS>MOLECULE
4cra_ligand
   63    67     1     1     0
SMALL
MMFF94_CHARGES


@<TRIPOS>ATOM
      1 C25       -26.4230  -55.5160   -9.7500 C.2       1 XJ8         0.5438 
      2 O26       -25.5140  -56.2710  -10.0540 O.2       1 XJ8        -0.5700 
      3 C27       -27.3000  -55.8380   -8.5920 C.ar      1 XJ8         0.0862 
      4 C28       -28.5010  -55.1250   -8.4030 C.ar      1 XJ8        -0.1500 
      5 C29       -29.3550  -55.4120   -7.3660 C.ar      1 XJ8        -0.1500 
      6 C30       -29.0420  -56.4380   -6.4650 C.ar      1 XJ8         0.1170 
      7 C31       -27.8420  -57.1810   -6.6550 C.ar      1 XJ8         0.0284 
      8 C32       -26.9780  -56.8820   -7.7200 C.ar      1 XJ8        -0.1500 
      9 C33       -27.5270  -58.2770   -5.7220 C.2       1 XJ8         0.0483 
     10 C34       -28.4290  -58.5770   -4.7280 C.2       1 XJ8        -0.1356 
     11 C35       -29.6260  -57.8210   -4.5940 C.2       1 XJ8         0.6156 
     12 O36       -30.4230  -58.0990   -3.6990 O.2       1 XJ8        -0.5700 
     13 N37       -29.8970  -56.7770   -5.4240 N.am      1 XJ8        -0.5470 
     14 O38       -26.3600  -58.9590   -5.8740 O.3       1 XJ8        -0.5267 
     15 N24       -26.6940  -54.4240  -10.5000 N.am      1 XJ8        -0.7301 
     16 C21       -25.9410  -54.0630  -11.7010 C.3       1 XJ8         0.3611 
     17 C22       -25.1150  -52.8280  -11.5220 C.2       1 XJ8         0.5690 
     18 O23       -25.2820  -52.1280  -10.5470 O.2       1 XJ8        -0.5700 
     19 C20       -27.0000  -53.6640  -12.7420 C.3       1 XJ8         0.1435 
     20 C17       -27.9180  -54.7840  -13.1970 C.ar      1 XJ8        -0.1435 
     21 C16       -29.2910  -54.6450  -13.0220 C.ar      1 XJ8        -0.1500 
     22 C18       -27.4020  -55.9220  -13.8290 C.ar      1 XJ8        -0.1500 
     23 C15       -30.1500  -55.6580  -13.4420 C.ar      1 XJ8        -0.1500 
     24 C19       -28.2570  -56.9380  -14.2570 C.ar      1 XJ8        -0.1500 
     25 C14       -29.6310  -56.7960  -14.0600 C.ar      1 XJ8        -0.1500 
     26 C1        -19.7300  -50.7950  -11.7610 C.ar      1 XJ8         0.3100 
     27 C2        -19.2730  -52.1350  -11.6920 C.ar      1 XJ8        -0.1500 
     28 C3        -20.1700  -53.1590  -11.8550 C.ar      1 XJ8        -0.1500 
     29 C4        -21.5230  -52.8800  -12.0960 C.ar      1 XJ8        -0.1500 
     30 C5        -21.9830  -51.5860  -12.1840 C.ar      1 XJ8        -0.1435 
     31 C6        -21.1030  -50.5060  -12.0100 C.ar      1 XJ8         0.0000 
     32 N7        -18.8830  -49.7830  -11.6020 N.ar      1 XJ8        -0.6200 
     33 C8        -19.2740  -48.5250  -11.6580 C.ar      1 XJ8         0.4100 
     34 C9        -20.6130  -48.1520  -11.9100 C.ar      1 XJ8        -0.1500 
     35 N10       -18.2930  -47.5620  -11.4670 N.pl3     1 XJ8        -0.9000 
     36 C11       -21.5440  -49.1460  -12.0820 C.ar      1 XJ8        -0.1500 
     37 C12       -23.4340  -51.2820  -12.4190 C.3       1 XJ8         0.4436 
     38 N13       -24.2460  -52.4930  -12.5020 N.am      1 XJ8        -0.7301 
     39 H1        -28.7574  -54.3298   -9.0936 H         1 XJ8         0.1500 
     40 H2        -30.2708  -54.8448   -7.2449 H         1 XJ8         0.1500 
     41 H3        -26.0695  -57.4553   -7.8649 H         1 XJ8         0.1500 
     42 H4        -28.2257  -59.3969   -4.0407 H         1 XJ8         0.1500 
     43 H5        -30.7299  -56.2422   -5.2813 H         1 XJ8         0.3700 
     44 H6        -25.8390  -58.8728   -5.0843 H         1 XJ8         0.4500 
     45 H7        -27.4492  -53.8319  -10.2187 H         1 XJ8         0.3700 
     46 H8        -25.3186  -54.9055  -12.0368 H         1 XJ8         0.0000 
     47 H9        -26.4762  -53.2736  -13.6270 H         1 XJ8         0.0000 
     48 H10       -27.6236  -52.8701  -12.3051 H         1 XJ8         0.0000 
     49 H11       -29.6917  -53.7501  -12.5597 H         1 XJ8         0.1500 
     50 H12       -26.3334  -56.0140  -13.9864 H         1 XJ8         0.1500 
     51 H13       -31.2189  -55.5623  -13.2891 H         1 XJ8         0.1500 
     52 H14       -27.8594  -57.8254  -14.7360 H         1 XJ8         0.1500 
     53 H15       -30.3032  -57.5793  -14.3911 H         1 XJ8         0.1500 
     54 H16       -18.2254  -52.3479  -11.5123 H         1 XJ8         0.1500 
     55 H17       -19.8323  -54.1874  -11.7974 H         1 XJ8         0.1500 
     56 H18       -22.2210  -53.7007  -12.2155 H         1 XJ8         0.1500 
     57 H19       -20.8980  -47.1076  -11.9661 H         1 XJ8         0.1500 
     58 H20       -18.5393  -46.5624  -11.4997 H         1 XJ8         0.4000 
     59 H21       -17.3187  -47.8469  -11.2925 H         1 XJ8         0.4000 
     60 H22       -22.5851  -48.9075  -12.2674 H         1 XJ8         0.1500 
     61 H23       -23.5308  -50.7255  -13.3629 H         1 XJ8         0.0000 
     62 H24       -23.8051  -50.6632  -11.5887 H         1 XJ8         0.0000 
     63 H25       -24.1573  -53.0875  -13.3012 H         1 XJ8         0.3700 
@<TRIPOS>BOND
     1    1    2 2    
     2    1    3 1    
     3   15    1 am   
     4    3    4 ar   
     5    3    8 ar   
     6    4    5 ar   
     7    5    6 ar   
     8    7    6 ar   
     9    6   13 1    
    10    8    7 ar   
    11    7    9 1    
    12    9   10 2    
    13    9   14 1    
    14   10   11 1    
    15   11   12 2    
    16   13   11 am   
    17   16   15 1    
    18   17   16 1    
    19   16   19 1    
    20   17   18 2    
    21   38   17 am   
    22   19   20 1    
    23   20   21 ar   
    24   20   22 ar   
    25   21   23 ar   
    26   22   24 ar   
    27   23   25 ar   
    28   24   25 ar   
    29   26   27 ar   
    30   31   26 ar   
    31   26   32 ar   
    32   28   27 ar   
    33   29   28 ar   
    34   30   29 ar   
    35   30   31 ar   
    36   37   30 1    
    37   31   36 ar   
    38   32   33 ar   
    39   34   33 ar   
    40   33   35 1    
    41   36   34 ar   
    42   37   38 1    
    43    4   39 1    
    44    5   40 1    
    45    8   41 1    
    46   10   42 1    
    47   13   43 1    
    48   14   44 1    
    49   15   45 1    
    50   16   46 1    
    51   19   47 1    
    52   19   48 1    
    53   21   49 1    
    54   22   50 1    
    55   23   51 1    
    56   24   52 1    
    57   25   53 1    
    58   27   54 1    
    59   28   55 1    
    60   29   56 1    
    61   34   57 1    
    62   35   58 1    
    63   35   59 1    
    64   36   60 1    
    65   37   61 1    
    66   37   62 1    
    67   38   63 1    
@<TRIPOS>SUBSTRUCTURE
     1 XJ8         1 PERM              0 ****  ****    0 ROOT 
@<TRIPOS>NORMAL
@<TRIPOS>ALT_TYPE
MMFF94_ALT_TYPE_SET 
MMFF94 16 CR 19 CR 37 CR 3 CB 4 CB 5 CB 6 CB 7 CB 8 CB 20 CB 21 CB 22 CB \
23 CB 24 CB 25 CB 26 CB 27 CB 28 CB 29 CB 30 CB 31 CB \
33 CB 34 CB 36 CB 11 C=ON 1 C=ON 17 C=ON 9 C=C 10 C=C \
39 HC 40 HC 41 HC 42 HC 46 HC 47 HC 48 HC 49 HC 50 HC \
51 HC 52 HC 53 HC 54 HC 55 HC 56 HC 57 HC 60 HC 61 HC \
62 HC 43 HNCC 58 HNCC 59 HNCC 45 HNCO 63 HNCO 44 HOCC \
12 O=CN 2 O=CN 18 O=CN 14 OC=C 32 NPYD 13 NC=O 15 NC=O \
38 NC=O 35 NC=N 
