#	Name:			3e92_ligand
#	Creating user name:	suminyi
#	Creation time:		Sun Sep 30 06:49:02 2018

#	Modifying user name:	suminyi
#	Modification time:	Sun Sep 30 06:49:02 2018

@<TRIPOS>MOLECULE
3e92_ligand
   47    50     1     1     0
SMALL
MMFF94_CHARGES


@<TRIPOS>ATOM
      1 C26        48.9010   34.8130   30.4810 C.3       1 G6A         0.1800 
      2 C23        37.1320   26.5140   36.2330 C.3       1 G6A        -0.2000 
      3 C22        38.2640   27.1710   36.9540 C.3       1 G6A        -0.2000 
      4 C19        38.5190   26.3570   35.7020 C.3       1 G6A         0.0490 
      5 C25        47.5280   34.8470   31.1690 C.2       1 G6A         0.2981 
      6 O21        46.6350   33.8930   30.9750 O.3       1 G6A        -0.2800 
      7 N24        46.9900   35.7430   32.0320 N.2       1 G6A        -0.3381 
      8 N20        45.8270   35.3620   32.3690 N.2       1 G6A        -0.3381 
      9 C18        45.5470   34.1890   31.7290 C.2       1 G6A         0.4251 
     10 C15        44.3010   33.4070   31.8360 C.ar      1 G6A         0.0530 
     11 C12        43.2130   33.8020   32.6200 C.ar      1 G6A        -0.1500 
     12 C6         42.0870   32.9840   32.6390 C.ar      1 G6A        -0.1500 
     13 C10        44.2100   32.2030   31.1160 C.ar      1 G6A        -0.1500 
     14 C5         43.0760   31.3710   31.1840 C.ar      1 G6A        -0.1435 
     15 C11        43.0360   30.0670   30.4250 C.3       1 G6A         0.1435 
     16 C2         41.9900   31.7880   31.9470 C.ar      1 G6A         0.0000 
     17 C1         40.7500   30.9510   32.0470 C.ar      1 G6A         0.0000 
     18 C3         40.6450   30.0430   33.1170 C.ar      1 G6A        -0.1500 
     19 C7         39.5210   29.2010   33.2980 C.ar      1 G6A         0.0862 
     20 C13        39.5490   28.2860   34.4810 C.2       1 G6A         0.5438 
     21 O17        40.4020   28.4830   35.3640 O.2       1 G6A        -0.5700 
     22 N16        38.5850   27.2970   34.6010 N.am      1 G6A        -0.5790 
     23 C14        38.4600   29.3230   32.3610 C.ar      1 G6A        -0.1500 
     24 C8         38.5450   30.2290   31.3010 C.ar      1 G6A        -0.1500 
     25 C4         39.6930   31.0460   31.1330 C.ar      1 G6A        -0.1435 
     26 C9         39.7830   32.0540   29.9890 C.3       1 G6A         0.1435 
     27 H1         49.4829   35.6973   30.7800 H         1 G6A         0.0000 
     28 H2         48.7644   34.8159   29.3895 H         1 G6A         0.0000 
     29 H3         49.4389   33.9016   30.7808 H         1 G6A         0.0000 
     30 H4         36.4023   27.1279   35.6848 H         1 G6A         0.1000 
     31 H5         36.6193   25.6535   36.6876 H         1 G6A         0.1000 
     32 H6         38.5881   26.7911   37.9341 H         1 G6A         0.1000 
     33 H7         38.3710   28.2655   36.9313 H         1 G6A         0.1000 
     34 H8         39.1076   25.4305   35.6302 H         1 G6A         0.1000 
     35 H9         43.2454   34.7193   33.1967 H         1 G6A         0.1500 
     36 H10        41.2358   33.3016   33.2302 H         1 G6A         0.1500 
     37 H11        45.0411   31.9050   30.4871 H         1 G6A         0.1500 
     38 H12        43.9866   29.9248   29.8901 H         1 G6A         0.0000 
     39 H13        42.2079   30.0892   29.7014 H         1 G6A         0.0000 
     40 H14        42.8845   29.2366   31.1304 H         1 G6A         0.0000 
     41 H15        41.4578   29.9858   33.8319 H         1 G6A         0.1500 
     42 H16        37.8921   27.2279   33.8832 H         1 G6A         0.3700 
     43 H17        37.5751   28.7065   32.4698 H         1 G6A         0.1500 
     44 H18        37.7237   30.3089   30.5980 H         1 G6A         0.1500 
     45 H19        40.7475   32.5806   30.0393 H         1 G6A         0.0000 
     46 H20        38.9629   32.7819   30.0763 H         1 G6A         0.0000 
     47 H21        39.7035   31.5256   29.0275 H         1 G6A         0.0000 
@<TRIPOS>BOND
     1    5    1 1    
     2    3    2 1    
     3    4    2 1    
     4    4    3 1    
     5   22    4 1    
     6    6    5 1    
     7    7    5 2    
     8    9    6 1    
     9    8    7 1    
    10    9    8 2    
    11   10    9 1    
    12   11   10 ar   
    13   13   10 ar   
    14   12   11 ar   
    15   16   12 ar   
    16   14   13 ar   
    17   14   15 1    
    18   16   14 ar   
    19   17   16 1    
    20   18   17 ar   
    21   17   25 ar   
    22   19   18 ar   
    23   20   19 1    
    24   19   23 ar   
    25   20   21 2    
    26   20   22 am   
    27   23   24 ar   
    28   24   25 ar   
    29   25   26 1    
    30    1   27 1    
    31    1   28 1    
    32    1   29 1    
    33    2   30 1    
    34    2   31 1    
    35    3   32 1    
    36    3   33 1    
    37    4   34 1    
    38   11   35 1    
    39   12   36 1    
    40   13   37 1    
    41   15   38 1    
    42   15   39 1    
    43   15   40 1    
    44   18   41 1    
    45   22   42 1    
    46   23   43 1    
    47   24   44 1    
    48   26   45 1    
    49   26   46 1    
    50   26   47 1    
@<TRIPOS>SUBSTRUCTURE
     1 G6A         1 PERM              0 ****  ****    0 ROOT 
@<TRIPOS>NORMAL
@<TRIPOS>ALT_TYPE
MMFF94_ALT_TYPE_SET 
MMFF94 2 CR3R 3 CR3R 4 CR3R 1 CR 15 CR 26 CR 5 C5A 9 C5A 10 CB 11 CB \
12 CB 13 CB 14 CB 16 CB 17 CB 18 CB 19 CB 23 CB 24 CB \
25 CB 20 C=ON 27 HC 28 HC 29 HC 30 HC 31 HC 32 HC 33 HC \
34 HC 35 HC 36 HC 37 HC 38 HC 39 HC 40 HC 41 HC 43 HC \
44 HC 45 HC 46 HC 47 HC 42 HNCO 6 OFUR 21 O=CN 7 N5B \
8 N5B 22 NC=O 
