#	Name:			3e92_ligand
#	Creating user name:	suminyi
#	Creation time:		Sun Sep 30 06:51:02 2018

#	Modifying user name:	suminyi
#	Modification time:	Sun Sep 30 06:51:02 2018

@<TRIPOS>MOLECULE
3e92_ligand
   47    50     1     1     0
SMALL
MMFF94_CHARGES


@<TRIPOS>ATOM
      1 C26        48.8960   34.5660   30.5600 C.3       1 MOL         0.1800 
      2 C23        37.0990   26.2830   36.2470 C.3       1 MOL        -0.2000 
      3 C22        38.1870   26.9620   37.0170 C.3       1 MOL        -0.2000 
      4 C19        38.4560   26.4500   35.6310 C.3       1 MOL         0.0490 
      5 C25        47.6060   34.6300   31.3110 C.2       1 MOL         0.2981 
      6 O21        46.6470   33.7000   31.0600 O.3       1 MOL        -0.2800 
      7 N24        47.2100   35.5810   32.1650 N.2       1 MOL        -0.3381 
      8 N20        45.9270   35.2440   32.5500 N.2       1 MOL        -0.3381 
      9 C18        45.6510   34.1060   31.9000 C.2       1 MOL         0.4251 
     10 C15        44.4170   33.3620   31.9430 C.ar      1 MOL         0.0530 
     11 C12        43.3660   33.7890   32.7540 C.ar      1 MOL        -0.1500 
     12 C6         42.1920   33.0480   32.8230 C.ar      1 MOL        -0.1500 
     13 C10        44.2650   32.1990   31.1850 C.ar      1 MOL        -0.1500 
     14 C5         43.0790   31.4670   31.2270 C.ar      1 MOL        -0.1435 
     15 C11        42.9770   30.1920   30.4120 C.3       1 MOL         0.1435 
     16 C2         42.0240   31.8880   32.0560 C.ar      1 MOL         0.0000 
     17 C1         40.7630   31.0840   32.1660 C.ar      1 MOL         0.0000 
     18 C3         40.6150   30.2360   33.2750 C.ar      1 MOL        -0.1500 
     19 C7         39.5400   29.3460   33.3700 C.ar      1 MOL         0.0862 
     20 C13        39.4510   28.4540   34.5870 C.2       1 MOL         0.5438 
     21 O17        40.1900   28.6180   35.5350 O.2       1 MOL        -0.5700 
     22 N16        38.5250   27.4740   34.6070 N.am      1 MOL        -0.5790 
     23 C14        38.6030   29.3230   32.3330 C.ar      1 MOL        -0.1500 
     24 C8         38.6960   30.2100   31.2650 C.ar      1 MOL        -0.1500 
     25 C4         39.7650   31.0970   31.1680 C.ar      1 MOL        -0.1435 
     26 C9         39.8180   32.0550   29.9870 C.3       1 MOL         0.1435 
     27 H1         49.3230   35.5570   30.4190 H         1 MOL         0.0000 
     28 H2         48.7420   34.1240   29.5740 H         1 MOL         0.0000 
     29 H3         49.6210   33.9510   31.0960 H         1 MOL         0.0000 
     30 H4         36.2840   26.9030   35.8990 H         1 MOL         0.1000 
     31 H5         36.8060   25.2860   36.5650 H         1 MOL         0.1000 
     32 H6         38.6270   26.4230   37.8500 H         1 MOL         0.1000 
     33 H7         38.1070   28.0350   37.1660 H         1 MOL         0.1000 
     34 H8         39.0840   25.5750   35.4770 H         1 MOL         0.1000 
     35 H9         43.4590   34.6990   33.3460 H         1 MOL         0.1500 
     36 H10        41.4110   33.3830   33.4830 H         1 MOL         0.1500 
     37 H11        45.0870   31.8450   30.5630 H         1 MOL         0.1500 
     38 H12        43.8050   30.1430   29.7080 H         1 MOL         0.0000 
     39 H13        42.0510   30.1560   29.8380 H         1 MOL         0.0000 
     40 H14        43.0210   29.3160   31.0640 H         1 MOL         0.0000 
     41 H15        41.3780   30.2280   34.0520 H         1 MOL         0.1500 
     42 H16        38.0280   27.3000   33.7420 H         1 MOL         0.3700 
     43 H17        37.7670   28.6410   32.3630 H         1 MOL         0.1500 
     44 H18        37.9180   30.2080   30.5040 H         1 MOL         0.1500 
     45 H19        40.6030   32.7900   30.1210 H         1 MOL         0.0000 
     46 H20        38.8750   32.5950   29.8760 H         1 MOL         0.0000 
     47 H21        40.0240   31.5240   29.0590 H         1 MOL         0.0000 
@<TRIPOS>BOND
     1    5    1 1    
     2    3    2 1    
     3    4    2 1    
     4    4    3 1    
     5   22    4 1    
     6    6    5 1    
     7    7    5 2    
     8    9    6 1    
     9    8    7 1    
    10    9    8 2    
    11   10    9 1    
    12   11   10 ar   
    13   13   10 ar   
    14   12   11 ar   
    15   16   12 ar   
    16   14   13 ar   
    17   14   15 1    
    18   16   14 ar   
    19   17   16 1    
    20   18   17 ar   
    21   17   25 ar   
    22   19   18 ar   
    23   20   19 1    
    24   19   23 ar   
    25   20   21 2    
    26   20   22 am   
    27   23   24 ar   
    28   24   25 ar   
    29   25   26 1    
    30    1   27 1    
    31    1   28 1    
    32    1   29 1    
    33    2   30 1    
    34    2   31 1    
    35    3   32 1    
    36    3   33 1    
    37    4   34 1    
    38   11   35 1    
    39   12   36 1    
    40   13   37 1    
    41   15   38 1    
    42   15   39 1    
    43   15   40 1    
    44   18   41 1    
    45   22   42 1    
    46   23   43 1    
    47   24   44 1    
    48   26   45 1    
    49   26   46 1    
    50   26   47 1    
@<TRIPOS>SUBSTRUCTURE
     1 MOL         1 PERM              0 ****  ****    0 ROOT 
@<TRIPOS>NORMAL
@<TRIPOS>ALT_TYPE
MMFF94_ALT_TYPE_SET 
MMFF94 2 CR3R 3 CR3R 4 CR3R 1 CR 15 CR 26 CR 5 C5A 9 C5A 10 CB 11 CB \
12 CB 13 CB 14 CB 16 CB 17 CB 18 CB 19 CB 23 CB 24 CB \
25 CB 20 C=ON 27 HC 28 HC 29 HC 30 HC 31 HC 32 HC 33 HC \
34 HC 35 HC 36 HC 37 HC 38 HC 39 HC 40 HC 41 HC 43 HC \
44 HC 45 HC 46 HC 47 HC 42 HNCO 6 OFUR 21 O=CN 7 N5B \
8 N5B 22 NC=O 
