#	Name:			3p5o_ligand
#	Creating user name:	suminyi
#	Creation time:		Sun Sep 30 06:51:10 2018

#	Modifying user name:	suminyi
#	Modification time:	Sun Sep 30 06:51:10 2018

@<TRIPOS>MOLECULE
3p5o_ligand
   52    55     1     1     0
SMALL
MMFF94_CHARGES


@<TRIPOS>ATOM
      1 Cl         30.0710   48.6730   -7.1840 Cl        1 MOL        -0.1770 
      2 C10        29.1240   49.2130   -5.8440 C.ar      1 MOL         0.1770 
      3 C9         29.6050   49.0440   -4.5550 C.ar      1 MOL        -0.1500 
      4 C8         28.8710   49.4960   -3.4620 C.ar      1 MOL        -0.1500 
      5 C11        27.8810   49.7960   -6.0420 C.ar      1 MOL        -0.1500 
      6 C12        27.1220   50.2080   -4.9450 C.ar      1 MOL        -0.1500 
      7 C7         27.6040   50.0800   -3.6280 C.ar      1 MOL         0.0862 
      8 C6         26.7100   50.4110   -2.4600 C.2       1 MOL         0.2776 
      9 N2         25.4720   50.6120   -2.7410 N.2       1 MOL        -0.6960 
     10 C13        27.2300   50.4820   -1.0410 C.ar      1 MOL         0.0862 
     11 C19        26.4500   50.1970    0.1080 C.ar      1 MOL        -0.0230 
     12 C18        27.0020   50.3540    1.3810 C.ar      1 MOL        -0.1500 
     13 C17        28.2890   50.8330    1.5590 C.ar      1 MOL        -0.1500 
     14 C15        29.0480   51.1760    0.4500 C.ar      1 MOL         0.0825 
     15 O2         30.2880   51.7680    0.5730 O.3       1 MOL        -0.3625 
     16 C16        30.8840   52.1160    1.8440 C.3       1 MOL         0.2800 
     17 C14        28.5330   50.9690   -0.8270 C.ar      1 MOL        -0.1500 
     18 N3         25.1810   49.6920    0.0330 N.pl3     1 MOL         0.3262 
     19 C22        24.2060   50.2290   -0.7440 C.2       1 MOL         0.0065 
     20 N5         23.0820   49.5170   -0.5630 N.2       1 MOL        -0.3381 
     21 N4         23.3670   48.5120    0.3550 N.2       1 MOL        -0.3381 
     22 C20        24.6610   48.6110    0.6950 C.2       1 MOL         0.0065 
     23 C21        25.3860   47.6210    1.5610 C.3       1 MOL         0.1800 
     24 C5         24.5080   51.2430   -1.8060 C.3       1 MOL         0.4260 
     25 C4         23.2920   51.6930   -2.6360 C.3       1 MOL         0.0610 
     26 C3         23.6140   52.8410   -3.5600 C.2       1 MOL         0.5690 
     27 O1         24.6350   53.4930   -3.4980 O.2       1 MOL        -0.5700 
     28 N1         22.6720   53.1340   -4.4690 N.am      1 MOL        -0.7301 
     29 C2         22.8080   54.2430   -5.4170 C.3       1 MOL         0.3001 
     30 C1         21.5070   54.4980   -6.1890 C.3       1 MOL         0.0000 
     31 H1         30.5420   48.5210   -4.4060 H         1 MOL         0.1500 
     32 H2         29.2620   49.2670   -2.4780 H         1 MOL         0.1500 
     33 H3         27.4990   49.9130   -7.0550 H         1 MOL         0.1500 
     34 H4         26.1410   50.6420   -5.1350 H         1 MOL         0.1500 
     35 H5         26.4380   50.1050    2.2630 H         1 MOL         0.1500 
     36 H6         28.6690   50.9540    2.5680 H         1 MOL         0.1500 
     37 H7         31.8500   52.5930    1.6620 H         1 MOL         0.0000 
     38 H8         31.0330   51.2090    2.4370 H         1 MOL         0.0000 
     39 H9         30.2280   52.8110    2.3750 H         1 MOL         0.0000 
     40 H10        29.1330   51.3240   -1.6610 H         1 MOL         0.1500 
     41 H11        24.7820   46.7230    1.6960 H         1 MOL         0.0000 
     42 H12        25.5940   48.0280    2.5500 H         1 MOL         0.0000 
     43 H13        26.3320   47.3230    1.1090 H         1 MOL         0.0000 
     44 H14        24.9650   52.1260   -1.3470 H         1 MOL         0.0000 
     45 H15        22.4760   51.9920   -1.9780 H         1 MOL         0.0000 
     46 H16        22.9520   50.8550   -3.2370 H         1 MOL         0.0000 
     47 H17        21.8560   52.5460   -4.5210 H         1 MOL         0.3700 
     48 H18        23.6130   54.0090   -6.1200 H         1 MOL         0.0000 
     49 H19        23.0860   55.1500   -4.8710 H         1 MOL         0.0000 
     50 H20        21.6450   55.3220   -6.8920 H         1 MOL         0.0000 
     51 H21        20.7040   54.7640   -5.4990 H         1 MOL         0.0000 
     52 H22        21.2120   53.6070   -6.7480 H         1 MOL         0.0000 
@<TRIPOS>BOND
     1    1    2 1    
     2    2    3 ar   
     3    2    5 ar   
     4    3    4 ar   
     5    4    7 ar   
     6    5    6 ar   
     7    6    7 ar   
     8    7    8 1    
     9    8    9 2    
    10    8   10 1    
    11    9   24 1    
    12   10   11 ar   
    13   10   17 ar   
    14   11   12 ar   
    15   11   18 1    
    16   12   13 ar   
    17   13   14 ar   
    18   14   15 1    
    19   14   17 ar   
    20   15   16 1    
    21   18   19 1    
    22   18   22 1    
    23   19   20 2    
    24   19   24 1    
    25   20   21 1    
    26   21   22 2    
    27   22   23 1    
    28   24   25 1    
    29   25   26 1    
    30   26   27 2    
    31   26   28 am   
    32   28   29 1    
    33   29   30 1    
    34    3   31 1    
    35    4   32 1    
    36    5   33 1    
    37    6   34 1    
    38   12   35 1    
    39   13   36 1    
    40   16   37 1    
    41   16   38 1    
    42   16   39 1    
    43   17   40 1    
    44   23   41 1    
    45   23   42 1    
    46   23   43 1    
    47   24   44 1    
    48   25   45 1    
    49   25   46 1    
    50   28   47 1    
    51   29   48 1    
    52   29   49 1    
    53   30   50 1    
    54   30   51 1    
    55   30   52 1    
@<TRIPOS>SUBSTRUCTURE
     1 MOL         1 PERM              0 ****  ****    0 ROOT 
@<TRIPOS>NORMAL
@<TRIPOS>ALT_TYPE
MMFF94_ALT_TYPE_SET 
MMFF94 16 CR 23 CR 24 CR 25 CR 29 CR 30 CR 19 C5A 22 C5A 2 CB 3 CB 4 CB \
5 CB 6 CB 7 CB 10 CB 11 CB 12 CB 13 CB 14 CB 17 CB 26 C=ON \
8 C=N 31 HC 32 HC 33 HC 34 HC 35 HC 36 HC 37 HC 38 HC \
39 HC 40 HC 41 HC 42 HC 43 HC 44 HC 45 HC 46 HC 48 HC \
49 HC 50 HC 51 HC 52 HC 47 HNCO 27 O=CN 15 OC=C 18 NPYL \
20 N5B 21 N5B 9 N=C 28 NC=O 1 CL 
