#	Name:			3arq_ligand
#	Creating user name:	suminyi
#	Creation time:		Sun Sep 30 06:51:01 2018

#	Modifying user name:	suminyi
#	Modification time:	Sun Sep 30 06:51:01 2018

@<TRIPOS>MOLECULE
3arq_ligand
   64    68     1     1     0
SMALL
MMFF94_CHARGES


@<TRIPOS>ATOM
      1 C1         13.5230   -7.9590   23.8980 C.ar      1 MOL        -0.1500 
      2 C2         13.3500   -7.1830   25.0410 C.ar      1 MOL        -0.1500 
      3 C3         14.4570   -6.7940   25.7900 C.ar      1 MOL        -0.1500 
      4 C4         15.7320   -7.2090   25.4130 C.ar      1 MOL        -0.1500 
      5 C5         15.9150   -7.9880   24.2640 C.ar      1 MOL         0.0862 
      6 C6         17.2880   -8.4230   23.8640 C.2       1 MOL         0.3976 
      7 O6         18.2550   -8.1410   24.5560 O.2       1 MOL        -0.5700 
      8 C7         17.4650   -9.1960   22.5820 C.ar      1 MOL         0.0862 
      9 C8         18.7380   -9.6300   22.1870 C.ar      1 MOL         0.0825 
     10 O8         19.8240   -9.3590   22.9680 O.3       1 MOL        -0.5325 
     11 C9         18.9150  -10.3680   21.0180 C.ar      1 MOL        -0.1435 
     12 C10        20.3090  -10.8960   20.7010 C.3       1 MOL         0.4235 
     13 O10        20.5470  -12.0250   21.5860 O.3       1 MOL        -0.5600 
     14 C11        20.4660  -11.3650   19.2480 C.3       1 MOL         0.0000 
     15 C12        19.2790  -12.2160   18.7650 C.3       1 MOL         0.3410 
     16 O12        19.1180  -13.3160   19.6730 O.3       1 MOL        -0.6800 
     17 C13        19.5880  -12.7090   17.3420 C.2       1 MOL         0.4480 
     18 O13        19.9980  -13.8350   17.1240 O.2       1 MOL        -0.5700 
     19 C14        19.5130  -11.6920   16.2220 C.3       1 MOL         0.0610 
     20 C15        17.9820  -11.3790   18.8600 C.3       1 MOL         0.1435 
     21 C16        17.8110  -10.6480   20.1970 C.ar      1 MOL        -0.1435 
     22 C17        16.5350  -10.2140   20.5790 C.ar      1 MOL         0.0825 
     23 O17        15.4820  -10.5090   19.7590 O.3       1 MOL        -0.5325 
     24 C18        16.3510   -9.5090   21.7790 C.ar      1 MOL         0.0862 
     25 C19        14.9690   -9.1070   22.2150 C.2       1 MOL         0.3976 
     26 O19        13.9970   -9.3540   21.5380 O.2       1 MOL        -0.5700 
     27 C20        14.8060   -8.3430   23.4910 C.ar      1 MOL         0.0862 
     28 C1'        21.7390  -11.9460   22.3880 C.3       1 MOL         0.5600 
     29 C2'        21.6310  -13.0500   23.4550 C.3       1 MOL         0.0000 
     30 C3'        21.6430  -14.4600   22.8170 C.3       1 MOL         0.5030 
     31 N3'        21.6120  -15.5350   23.8760 N.4       1 MOL        -0.8530 
     32 C4'        22.8810  -14.6130   21.9000 C.3       1 MOL         0.2800 
     33 O4'        24.0650  -14.6240   22.7160 O.3       1 MOL        -0.6800 
     34 C5'        22.9270  -13.4600   20.8690 C.3       1 MOL         0.2800 
     35 O5'        22.9240  -12.1950   21.5870 O.3       1 MOL        -0.5600 
     36 C6'        24.1690  -13.4960   19.9570 C.3       1 MOL         0.0000 
     37 H1         12.6520   -8.2560   23.3090 H         1 MOL         0.1500 
     38 H2         12.3520   -6.8570   25.3280 H         1 MOL         0.1500 
     39 H3         14.3310   -6.1450   26.6560 H         1 MOL         0.1500 
     40 H4         16.5880   -6.8920   26.0060 H         1 MOL         0.1500 
     41 H5         21.0550  -10.1170   20.8870 H         1 MOL         0.0000 
     42 H6         21.4090  -11.8870   19.1030 H         1 MOL         0.0000 
     43 H7         20.5160  -10.4840   18.6270 H         1 MOL         0.0000 
     44 H8         19.0990  -12.9040   20.5670 H         1 MOL         0.4000 
     45 H9         20.2700  -11.9020   15.4640 H         1 MOL         0.0000 
     46 H10        19.6900  -10.6850   16.5800 H         1 MOL         0.0000 
     47 H11        18.5220  -11.7130   15.7630 H         1 MOL         0.0000 
     48 H12        17.1320  -12.0430   18.6780 H         1 MOL         0.0000 
     49 H13        17.9400  -10.6170   18.0780 H         1 MOL         0.0000 
     50 H14        19.4450   -8.8480   23.7430 H         1 MOL         0.4500 
     51 H15        14.6320  -10.0940   20.1080 H         1 MOL         0.4500 
     52 H16        21.8060  -10.9420   22.8430 H         1 MOL         0.0000 
     53 H17        20.7080  -12.9040   24.0190 H         1 MOL         0.0000 
     54 H18        22.4620  -12.9390   24.1550 H         1 MOL         0.0000 
     55 H19        20.7400  -14.5650   22.1960 H         1 MOL         0.0000 
     56 H20        21.6480  -16.4780   23.4710 H         1 MOL         0.4500 
     57 H21        20.7340  -15.4970   24.4500 H         1 MOL         0.4500 
     58 H22        22.4180  -15.4440   24.5130 H         1 MOL         0.4500 
     59 H23        22.8050  -15.5610   21.3570 H         1 MOL         0.0000 
     60 H24        24.5160  -13.7630   22.5770 H         1 MOL         0.4000 
     61 H25        22.0330  -13.5390   20.2420 H         1 MOL         0.0000 
     62 H26        24.0990  -12.7130   19.1990 H         1 MOL         0.0000 
     63 H27        24.2410  -14.4570   19.4430 H         1 MOL         0.0000 
     64 H28        25.0870  -13.3390   20.5270 H         1 MOL         0.0000 
@<TRIPOS>BOND
     1    1    2 ar   
     2    1   27 ar   
     3    2    3 ar   
     4    3    4 ar   
     5    4    5 ar   
     6    5    6 1    
     7    5   27 ar   
     8    6    7 2    
     9    6    8 1    
    10    8    9 ar   
    11    8   24 ar   
    12    9   10 1    
    13    9   11 ar   
    14   11   12 1    
    15   11   21 ar   
    16   12   13 1    
    17   12   14 1    
    18   13   28 1    
    19   14   15 1    
    20   15   16 1    
    21   15   17 1    
    22   15   20 1    
    23   17   18 2    
    24   17   19 1    
    25   20   21 1    
    26   21   22 ar   
    27   22   23 1    
    28   22   24 ar   
    29   24   25 1    
    30   25   26 2    
    31   25   27 1    
    32   28   29 1    
    33   28   35 1    
    34   29   30 1    
    35   30   31 1    
    36   30   32 1    
    37   32   33 1    
    38   32   34 1    
    39   34   35 1    
    40   34   36 1    
    41    1   37 1    
    42    2   38 1    
    43    3   39 1    
    44    4   40 1    
    45   12   41 1    
    46   14   42 1    
    47   14   43 1    
    48   16   44 1    
    49   19   45 1    
    50   19   46 1    
    51   19   47 1    
    52   20   48 1    
    53   20   49 1    
    54   10   50 1    
    55   23   51 1    
    56   28   52 1    
    57   29   53 1    
    58   29   54 1    
    59   30   55 1    
    60   31   56 1    
    61   31   57 1    
    62   31   58 1    
    63   32   59 1    
    64   33   60 1    
    65   34   61 1    
    66   36   62 1    
    67   36   63 1    
    68   36   64 1    
@<TRIPOS>SUBSTRUCTURE
     1 MOL         1 PERM              0 ****  ****    0 ROOT 
@<TRIPOS>NORMAL
@<TRIPOS>ALT_TYPE
MMFF94_ALT_TYPE_SET 
MMFF94 12 CR 14 CR 15 CR 19 CR 20 CR 28 CR 29 CR 30 CR 32 CR 34 CR 36 CR \
1 CB 2 CB 3 CB 4 CB 5 CB 8 CB 9 CB 11 CB 21 CB 22 CB \
24 CB 27 CB 6 C=OR 17 C=OR 25 C=OR 37 HC 38 HC 39 HC \
40 HC 41 HC 42 HC 43 HC 45 HC 46 HC 47 HC 48 HC 49 HC \
52 HC 53 HC 54 HC 55 HC 59 HC 61 HC 62 HC 63 HC 64 HC \
56 HNR+ 57 HNR+ 58 HNR+ 50 HOCC 51 HOCC 44 HOR 60 HOR \
7 O=CR 18 O=CR 26 O=CR 10 OC=C 23 OC=C 13 OR 16 OR 33 OR \
35 OR 31 NR+ 
