#	Name:			4hge_ligand
#	Creating user name:	suminyi
#	Creation time:		Sun Sep 30 06:48:34 2018

#	Modifying user name:	suminyi
#	Modification time:	Sun Sep 30 06:48:34 2018

@<TRIPOS>MOLECULE
4hge_ligand
   38    41     1     1     0
SMALL
MMFF94_CHARGES


@<TRIPOS>ATOM
      1 C4         62.7690   11.1470    3.2480 C.2       1 MOL        -0.1810 
      2 C14        57.4910    9.1960    1.0750 C.ar      1 MOL        -0.1500 
      3 C5         60.2430   11.2620    5.5780 C.2       1 MOL        -0.0860 
      4 C6         61.1730   12.0930    6.1860 C.2       1 MOL         0.1388 
      5 C11        56.5310    8.6890    3.2510 C.ar      1 MOL        -0.0230 
      6 C7         58.8530   10.9100    5.9850 C.2       1 MOL         0.7160 
      7 C8         54.7420    9.4020    6.0750 C.2       1 MOL         0.1078 
      8 C9         55.9540   10.0020    6.4430 C.2       1 MOL        -0.1500 
      9 C10        56.7970    9.7500    5.3610 C.2       1 MOL        -0.0876 
     10 C12        53.5650    9.4620    7.0270 C.3       1 MOL         0.1810 
     11 C13        57.0750    9.5820    2.3370 C.ar      1 MOL        -0.1500 
     12 N1         60.2410   10.0360    3.3840 N.2       1 MOL        -0.5760 
     13 N2         61.9640   11.3650    4.2950 N.pl3     1 MOL         0.6006 
     14 C3         60.7560   10.8300    4.3550 C.2       1 MOL        -0.0256 
     15 N3         62.2850   12.1450    5.4140 N.2       1 MOL        -0.7068 
     16 CL1        56.6330    5.2330    1.0290 Cl        1 MOL        -0.1770 
     17 C16        56.8060    6.9470    1.5600 C.ar      1 MOL         0.1770 
     18 C15        57.3680    7.8720    0.6900 C.ar      1 MOL        -0.1500 
     19 C17        56.3940    7.3610    2.8260 C.ar      1 MOL        -0.1500 
     20 N5         56.1200    9.0950    4.4470 N.pl3     1 MOL         0.5926 
     21 N4         54.8180    8.8490    4.8580 N.2       1 MOL        -0.7068 
     22 N6         58.0960   10.1340    5.1780 N.am      1 MOL        -0.4940 
     23 O1         58.4750   11.4250    7.0300 O.2       1 MOL        -0.5700 
     24 C2         61.0120    9.7780    2.3080 C.2       1 MOL         0.3756 
     25 C1         62.3040   10.3320    2.2160 C.2       1 MOL        -0.1356 
     26 H1         63.7564   11.5922    3.2033 H         1 MOL         0.1500 
     27 H2         57.9106    9.9258    0.3921 H         1 MOL         0.1500 
     28 H3         61.0320   12.6178    7.1298 H         1 MOL         0.1500 
     29 H4         56.1841   10.5403    7.3612 H         1 MOL         0.1500 
     30 H5         52.7042    8.9442    6.5788 H         1 MOL         0.0000 
     31 H6         53.3016   10.5126    7.2187 H         1 MOL         0.0000 
     32 H7         53.8345    8.9727    7.9746 H         1 MOL         0.0000 
     33 H8         57.1778   10.6224    2.6235 H         1 MOL         0.1500 
     34 H10        57.7100    7.5577   -0.2894 H         1 MOL         0.1500 
     35 H11        55.9552    6.6348    3.5006 H         1 MOL         0.1500 
     36 H12        58.5399    9.8004    4.3464 H         1 MOL         0.3700 
     37 H13        60.6371    9.1436    1.5130 H         1 MOL         0.0600 
     38 H14        62.9288   10.1275    1.3541 H         1 MOL         0.1500 
@<TRIPOS>BOND
     1   13    1 1    
     2    1   25 2    
     3    2   11 ar   
     4   18    2 ar   
     5    3    4 1    
     6    6    3 1    
     7    3   14 2    
     8    4   15 2    
     9   11    5 ar   
    10    5   19 ar   
    11    5   20 1    
    12   22    6 am   
    13    6   23 2    
    14    8    7 1    
    15    7   10 1    
    16    7   21 2    
    17    9    8 2    
    18   20    9 1    
    19    9   22 1    
    20   14   12 1    
    21   12   24 2    
    22   14   13 1    
    23   13   15 1    
    24   17   16 1    
    25   17   18 ar   
    26   17   19 ar   
    27   20   21 1    
    28   24   25 1    
    29    1   26 1    
    30    2   27 1    
    31    4   28 1    
    32    8   29 1    
    33   10   30 1    
    34   10   31 1    
    35   10   32 1    
    36   11   33 1    
    37   18   34 1    
    38   19   35 1    
    39   22   36 1    
    40   24   37 1    
    41   25   38 1    
@<TRIPOS>SUBSTRUCTURE
     1 MOL         1 PERM              0 ****  ****    0 ROOT 
@<TRIPOS>NORMAL
@<TRIPOS>ALT_TYPE
MMFF94_ALT_TYPE_SET 
MMFF94 10 CR 14 C5A 9 C5A 3 C5B 4 C5B 8 C5B 7 C5B 2 CB 5 CB 11 CB 17 CB \
18 CB 19 CB 6 C=ON 24 C=N 1 C=C 25 C=C 26 HC 27 HC 28 HC \
29 HC 30 HC 31 HC 32 HC 33 HC 34 HC 35 HC 37 HC 38 HC \
36 HNCC 23 O=CN 13 NPYL 20 NPYL 15 N5A 21 N5A 12 N=C \
22 NC=O 16 CL 
