#	Name:			4hge_ligand
#	Creating user name:	suminyi
#	Creation time:		Sun Sep 30 06:51:03 2018

#	Modifying user name:	suminyi
#	Modification time:	Sun Sep 30 06:51:03 2018

@<TRIPOS>MOLECULE
4hge_ligand
   38    41     1     1     0
SMALL
MMFF94_CHARGES


@<TRIPOS>ATOM
      1 C4         62.7940   11.2300    3.1880 C.2       1 MOL        -0.1810 
      2 C14        57.3150    9.1490    1.0210 C.ar      1 MOL        -0.1500 
      3 C5         60.0830   11.1770    5.4240 C.2       1 MOL        -0.0860 
      4 C6         61.0100   12.0190    6.0920 C.2       1 MOL         0.1388 
      5 C11        56.3650    8.5650    3.1580 C.ar      1 MOL        -0.0230 
      6 C7         58.7520   10.8740    5.9370 C.2       1 MOL         0.7160 
      7 C8         54.6440    9.2410    6.0380 C.2       1 MOL         0.1078 
      8 C9         55.8860    9.8630    6.3380 C.2       1 MOL        -0.1500 
      9 C10        56.6950    9.6430    5.2700 C.2       1 MOL        -0.0876 
     10 C12        53.4890    9.3350    6.9780 C.3       1 MOL         0.1810 
     11 C13        56.8480    9.5290    2.2750 C.ar      1 MOL        -0.1500 
     12 N1         60.1220    9.9620    3.3430 N.2       1 MOL        -0.5760 
     13 N2         61.9340   11.3630    4.2470 N.pl3     1 MOL         0.6006 
     14 C3         60.7050   10.7790    4.2860 C.2       1 MOL        -0.0256 
     15 N3         62.1440   12.1180    5.3630 N.2       1 MOL        -0.7068 
     16 Cl1        56.5440    5.2180    0.9630 Cl        1 MOL        -0.1770 
     17 C16        56.7020    6.8590    1.4880 C.ar      1 MOL         0.1770 
     18 C15        57.2470    7.8120    0.6340 C.ar      1 MOL        -0.1500 
     19 C17        56.2750    7.2320    2.7580 C.ar      1 MOL        -0.1500 
     20 N5         55.9160    8.9290    4.3860 N.pl3     1 MOL         0.5926 
     21 N4         54.6580    8.6700    4.8260 N.2       1 MOL        -0.7068 
     22 N6         58.0060   10.0870    5.1430 N.am      1 MOL        -0.4940 
     23 O1         58.3610   11.2940    7.0030 O.2       1 MOL        -0.5700 
     24 C2         61.0000    9.7960    2.2740 C.2       1 MOL         0.3756 
     25 C1         62.3100   10.4050    2.1830 C.2       1 MOL        -0.1356 
     26 H1         63.7170   11.7880    3.2120 H         1 MOL         0.1500 
     27 H2         57.7070    9.8970    0.3360 H         1 MOL         0.1500 
     28 H3         60.9240   12.5480    7.0350 H         1 MOL         0.1500 
     29 H4         56.0890   10.4000    7.2560 H         1 MOL         0.1500 
     30 H5         52.7810    8.5230    6.8100 H         1 MOL         0.0000 
     31 H6         52.9660   10.2760    6.8140 H         1 MOL         0.0000 
     32 H7         53.8150    9.2950    8.0200 H         1 MOL         0.0000 
     33 H8         56.8490   10.5760    2.5580 H         1 MOL         0.1500 
     34 H10        57.5960    7.5130   -0.3460 H         1 MOL         0.1500 
     35 H11        55.8490    6.4940    3.4230 H         1 MOL         0.1500 
     36 H12        58.5010    9.8060    4.3070 H         1 MOL         0.3700 
     37 H13        60.6010    9.1710    1.4840 H         1 MOL         0.0600 
     38 H14        62.8830   10.2350    1.2790 H         1 MOL         0.1500 
@<TRIPOS>BOND
     1   13    1 1    
     2    1   25 2    
     3    2   11 ar   
     4   18    2 ar   
     5    3    4 1    
     6    6    3 1    
     7    3   14 2    
     8    4   15 2    
     9   11    5 ar   
    10    5   19 ar   
    11    5   20 1    
    12   22    6 am   
    13    6   23 2    
    14    8    7 1    
    15    7   10 1    
    16    7   21 2    
    17    9    8 2    
    18   20    9 1    
    19    9   22 1    
    20   14   12 1    
    21   12   24 2    
    22   14   13 1    
    23   13   15 1    
    24   17   16 1    
    25   17   18 ar   
    26   17   19 ar   
    27   20   21 1    
    28   24   25 1    
    29    1   26 1    
    30    2   27 1    
    31    4   28 1    
    32    8   29 1    
    33   10   30 1    
    34   10   31 1    
    35   10   32 1    
    36   11   33 1    
    37   18   34 1    
    38   19   35 1    
    39   22   36 1    
    40   24   37 1    
    41   25   38 1    
@<TRIPOS>SUBSTRUCTURE
     1 MOL         1 PERM              0 ****  ****    0 ROOT 
@<TRIPOS>NORMAL
@<TRIPOS>ALT_TYPE
MMFF94_ALT_TYPE_SET 
MMFF94 10 CR 14 C5A 9 C5A 3 C5B 4 C5B 8 C5B 7 C5B 2 CB 5 CB 11 CB 17 CB \
18 CB 19 CB 6 C=ON 24 C=N 1 C=C 25 C=C 26 HC 27 HC 28 HC \
29 HC 30 HC 31 HC 32 HC 33 HC 34 HC 35 HC 37 HC 38 HC \
36 HNCC 23 O=CN 13 NPYL 20 NPYL 15 N5A 21 N5A 12 N=C \
22 NC=O 16 CL 
