#	Name:			2p4y_ligand
#	Creating user name:	suminyi
#	Creation time:		Sun Sep 30 06:51:12 2018

#	Modifying user name:	suminyi
#	Modification time:	Sun Sep 30 06:51:12 2018

@<TRIPOS>MOLECULE
2p4y_ligand
   61    65     1     1     0
SMALL
MMFF94_CHARGES


@<TRIPOS>ATOM
      1 C1         15.9010    4.6830   15.6360 C.ar      1 MOL        -0.1500 
      2 C2         14.7010    4.5980   14.9270 C.ar      1 MOL        -0.1500 
      3 C3         14.7500    4.6450   13.5370 C.ar      1 MOL         0.0000 
      4 C4         15.9300    4.8930   12.8860 C.ar      1 MOL        -0.1516 
      5 C5         17.1360    5.0090   13.5780 C.ar      1 MOL        -0.1500 
      6 C6         17.1200    4.8700   14.9700 C.ar      1 MOL         0.0825 
      7 C10        13.7240    4.6600   12.5430 C.2       1 MOL         0.0000 
      8 C11        14.3280    5.0050   11.3430 C.2       1 MOL        -0.3316 
      9 N12        15.7050    5.0910   11.5620 N.pl3     1 MOL         0.0476 
     10 C13        12.3100    4.4490   12.7970 C.2       1 MOL         0.2888 
     11 C14        13.6850    5.0280    9.9800 C.3       1 MOL         0.1800 
     12 C18        16.7240    5.2840   10.5240 C.3       1 MOL         0.3991 
     13 O19        18.3000    5.0470   15.6710 O.3       1 MOL        -0.3625 
     14 C20        18.8210    4.0760   16.6050 C.3       1 MOL         1.3000 
     15 F21        19.9750    4.5120   17.1400 F         1 MOL        -0.3400 
     16 F22        19.0920    2.9060   16.0000 F         1 MOL        -0.3400 
     17 F23        17.9960    3.8350   17.6380 F         1 MOL        -0.3400 
     18 C24        17.0320    6.7340   10.1460 C.ar      1 MOL        -0.1435 
     19 C27        16.2160    7.8010   10.5530 C.ar      1 MOL        -0.1500 
     20 C28        16.4950    9.1050   10.1470 C.ar      1 MOL         0.0825 
     21 C29        17.6030    9.3620    9.3430 C.ar      1 MOL        -0.1500 
     22 C30        18.4210    8.3130    8.9320 C.ar      1 MOL        -0.1500 
     23 C31        18.1390    7.0110    9.3320 C.ar      1 MOL         0.1770 
     24 Cl1        19.1980    5.7600    8.7750 Cl        1 MOL        -0.1770 
     25 O36        15.6740   10.1350   10.5600 O.3       1 MOL        -0.3625 
     26 C37        15.1450   11.0990    9.5940 C.3       1 MOL         0.1740 
     27 C38        14.3810   12.2030   10.3510 C.3       1 MOL         0.0000 
     28 C42        14.2830   10.4790    8.4920 C.2       1 MOL         0.9060 
     29 O44        14.4610   10.8820    7.3590 O.co2     1 MOL        -0.9000 
     30 O45        13.4330    9.6580    8.7890 O.co2     1 MOL        -0.9000 
     31 N46        11.3640    5.1040   12.1030 N.2       1 MOL        -0.4097 
     32 O47        10.1630    4.7430   12.7800 O.3       1 MOL        -0.0191 
     33 C48        10.4590    3.8550   13.7940 C.ar      1 MOL         0.1400 
     34 C49        11.7990    3.6120   13.8240 C.ar      1 MOL         0.0000 
     35 C50         9.5850    3.2140   14.6630 C.ar      1 MOL        -0.1500 
     36 C51        10.1230    2.2750   15.5530 C.ar      1 MOL         0.0825 
     37 C52        11.4870    1.9640   15.5090 C.ar      1 MOL        -0.1500 
     38 C53        12.3480    2.6200   14.6300 C.ar      1 MOL        -0.1500 
     39 O57         9.3460    1.5830   16.4580 O.3       1 MOL        -0.3625 
     40 C58         8.1160    2.1220   17.0000 C.3       1 MOL         0.2800 
     41 H1         15.8620    4.6620   16.7180 H         1 MOL         0.1500 
     42 H2         13.7560    4.5550   15.4630 H         1 MOL         0.1500 
     43 H3         18.0670    5.2330   13.0620 H         1 MOL         0.1500 
     44 H4         12.6050    5.1490    9.9940 H         1 MOL         0.0000 
     45 H5         13.8980    4.0890    9.4700 H         1 MOL         0.0000 
     46 H6         14.0870    5.8420    9.3760 H         1 MOL         0.0000 
     47 H7         16.3990    4.7490    9.6280 H         1 MOL         0.0000 
     48 H8         17.6400    4.7980   10.8630 H         1 MOL         0.0000 
     49 H9         15.3350    7.6360   11.1670 H         1 MOL         0.1500 
     50 H10        17.8240   10.3770    9.0370 H         1 MOL         0.1500 
     51 H11        19.2780    8.4960    8.2880 H         1 MOL         0.1500 
     52 H12        15.9920   11.5690    9.0920 H         1 MOL         0.0000 
     53 H13        14.2950   13.0930    9.7240 H         1 MOL         0.0000 
     54 H14        14.8990   12.4760   11.2720 H         1 MOL         0.0000 
     55 H15        13.3700   11.8790   10.6000 H         1 MOL         0.0000 
     56 H16         8.5210    3.4470   14.6360 H         1 MOL         0.1500 
     57 H17        11.8730    1.1880   16.1590 H         1 MOL         0.1500 
     58 H18        13.3970    2.3420   14.5730 H         1 MOL         0.1500 
     59 H19         7.6660    1.3530   17.6290 H         1 MOL         0.0000 
     60 H20         7.4250    2.3830   16.1950 H         1 MOL         0.0000 
     61 H21         8.3250    3.0050   17.6050 H         1 MOL         0.0000 
@<TRIPOS>BOND
     1    1    2 ar   
     2    1    6 ar   
     3    2    3 ar   
     4    3    4 ar   
     5    3    7 1    
     6    4    5 ar   
     7    4    9 1    
     8    5    6 ar   
     9    6   13 1    
    10    7    8 2    
    11    7   10 1    
    12    8    9 1    
    13    8   11 1    
    14    9   12 1    
    15   10   31 2    
    16   10   34 1    
    17   12   18 1    
    18   13   14 1    
    19   14   15 1    
    20   14   16 1    
    21   14   17 1    
    22   18   19 ar   
    23   18   23 ar   
    24   19   20 ar   
    25   20   21 ar   
    26   20   25 1    
    27   21   22 ar   
    28   22   23 ar   
    29   23   24 1    
    30   25   26 1    
    31   26   27 1    
    32   26   28 1    
    33   28   29 ar   
    34   28   30 ar   
    35   31   32 1    
    36   32   33 1    
    37   33   34 ar   
    38   33   35 ar   
    39   34   38 ar   
    40   35   36 ar   
    41   36   37 ar   
    42   36   39 1    
    43   37   38 ar   
    44   39   40 1    
    45    1   41 1    
    46    2   42 1    
    47    5   43 1    
    48   11   44 1    
    49   11   45 1    
    50   11   46 1    
    51   12   47 1    
    52   12   48 1    
    53   19   49 1    
    54   21   50 1    
    55   22   51 1    
    56   26   52 1    
    57   27   53 1    
    58   27   54 1    
    59   27   55 1    
    60   35   56 1    
    61   37   57 1    
    62   38   58 1    
    63   40   59 1    
    64   40   60 1    
    65   40   61 1    
@<TRIPOS>SUBSTRUCTURE
     1 MOL         1 PERM              0 ****  ****    0 ROOT 
@<TRIPOS>NORMAL
@<TRIPOS>ALT_TYPE
MMFF94_ALT_TYPE_SET 
MMFF94 11 CR 12 CR 14 CR 26 CR 27 CR 40 CR 8 C5A 33 C5A 4 C5A 7 C5B \
10 C5B 3 C5B 34 C5B 1 CB 2 CB 5 CB 6 CB 18 CB 19 CB 20 CB \
21 CB 22 CB 23 CB 35 CB 36 CB 37 CB 38 CB 28 CO2M 41 HC \
42 HC 43 HC 44 HC 45 HC 46 HC 47 HC 48 HC 49 HC 50 HC \
51 HC 52 HC 53 HC 54 HC 55 HC 56 HC 57 HC 58 HC 59 HC \
60 HC 61 HC 32 OFUR 29 O2CM 30 O2CM 13 OC=C 25 OC=C 39 OC=C \
9 NPYL 31 N5A 15 F 16 F 17 F 24 CL 
