#	Name:			3zt2_ligand
#	Creating user name:	suminyi
#	Creation time:		Sun Sep 30 06:50:57 2018

#	Modifying user name:	suminyi
#	Modification time:	Sun Sep 30 06:50:57 2018

@<TRIPOS>MOLECULE
3zt2_ligand
   34    37     1     1     0
SMALL
MMFF94_CHARGES


@<TRIPOS>ATOM
      1 C1        -31.0660   28.6350    0.4950 C.ar      1 MOL        -0.1500 
      2 C2        -31.3450   27.4790   -0.2370 C.ar      1 MOL        -0.1500 
      3 C3        -31.8750   29.7660    0.3650 C.ar      1 MOL        -0.1500 
      4 C4        -33.1960   32.1880    1.9300 C.ar      1 MOL        -0.1500 
      5 C5        -32.4640   27.4310   -1.0700 C.ar      1 MOL        -0.1500 
      6 C6        -32.4460   32.7960    2.9320 C.ar      1 MOL        -0.1500 
      7 C7        -33.0110   29.7020   -0.4440 C.ar      1 MOL         0.0284 
      8 C8        -33.3350   32.7780    0.6650 C.ar      1 MOL         0.0284 
      9 C9        -32.7150   34.0230    0.3870 C.ar      1 MOL        -0.1790 
     10 C10       -33.2890   28.5480   -1.1510 C.ar      1 MOL        -0.1435 
     11 C11       -31.8440   34.0050    2.6470 C.ar      1 MOL         0.0825 
     12 C12       -31.9610   34.5940    1.4190 C.ar      1 MOL         0.0825 
     13 C13       -34.0150   30.7460   -0.7510 C.2       1 MOL        -0.0140 
     14 C14       -34.9610   30.1060   -1.6980 C.2       1 MOL         0.4946 
     15 C15       -34.1180   32.0260   -0.3470 C.2       1 MOL        -0.1784 
     16 C16       -32.7420   34.6820   -0.9700 C.2       1 MOL         0.9790 
     17 C17       -34.4970   28.7090   -2.0460 C.3       1 MOL         0.2045 
     18 C18       -30.5680   35.8590    2.6960 C.3       1 MOL         0.5600 
     19 O19       -31.8900   35.5110   -1.2310 O.co2     1 MOL        -0.9000 
     20 O20       -36.0190   30.5950   -2.0390 O.2       1 MOL        -0.5700 
     21 O21       -33.4730   34.2580   -1.8330 O.co2     1 MOL        -0.9000 
     22 O22       -31.0900   34.7730    3.4870 O.3       1 MOL        -0.3625 
     23 O23       -31.2530   35.7680    1.4270 O.3       1 MOL        -0.3625 
     24 H1        -30.2090   28.6610    1.1600 H         1 MOL         0.1500 
     25 H2        -30.6860   26.6170   -0.1640 H         1 MOL         0.1500 
     26 H3        -31.5920   30.6760    0.8740 H         1 MOL         0.1500 
     27 H4        -33.6770   31.2330    2.1300 H         1 MOL         0.1500 
     28 H5        -32.6820   26.5470   -1.6610 H         1 MOL         0.1500 
     29 H6        -32.3320   32.3390    3.9040 H         1 MOL         0.1500 
     30 H7        -34.8730   32.6260   -0.8650 H         1 MOL         0.1500 
     31 H8        -35.2740   27.9780   -1.8240 H         1 MOL         0.0000 
     32 H9        -34.2170   28.6640   -3.1000 H         1 MOL         0.0000 
     33 H10       -29.4920   35.7000    2.5370 H         1 MOL         0.0000 
     34 H11       -30.7720   36.8240    3.1830 H         1 MOL         0.0000 
@<TRIPOS>BOND
     1    1    2 ar   
     2    3    1 ar   
     3    5    2 ar   
     4    7    3 ar   
     5    4    6 ar   
     6    8    4 ar   
     7   10    5 ar   
     8    6   11 ar   
     9    7   10 ar   
    10   13    7 1    
    11    8    9 ar   
    12   15    8 1    
    13    9   12 ar   
    14    9   16 1    
    15   10   17 1    
    16   12   11 ar   
    17   11   22 1    
    18   12   23 1    
    19   13   14 1    
    20   13   15 2    
    21   14   17 1    
    22   14   20 2    
    23   16   19 ar   
    24   16   21 ar   
    25   22   18 1    
    26   18   23 1    
    27    1   24 1    
    28    2   25 1    
    29    3   26 1    
    30    4   27 1    
    31    5   28 1    
    32    6   29 1    
    33   15   30 1    
    34   17   31 1    
    35   17   32 1    
    36   18   33 1    
    37   18   34 1    
@<TRIPOS>SUBSTRUCTURE
     1 MOL         1 PERM              0 ****  ****    0 ROOT 
@<TRIPOS>NORMAL
@<TRIPOS>ALT_TYPE
MMFF94_ALT_TYPE_SET 
MMFF94 17 CR 18 CR 1 CB 2 CB 3 CB 4 CB 5 CB 6 CB 7 CB 8 CB 9 CB 10 CB \
11 CB 12 CB 16 CO2M 14 C=OR 13 C=C 15 C=C 24 HC 25 HC \
26 HC 27 HC 28 HC 29 HC 30 HC 31 HC 32 HC 33 HC 34 HC \
19 O2CM 21 O2CM 20 O=CR 22 OC=C 23 OC=C 
