#	Name:			3zt2_ligand
#	Creating user name:	suminyi
#	Creation time:		Sun Sep 30 06:48:44 2018

#	Modifying user name:	suminyi
#	Modification time:	Sun Sep 30 06:48:44 2018

@<TRIPOS>MOLECULE
3zt2_ligand
   34    37     1     1     0
SMALL
MMFF94_CHARGES


@<TRIPOS>ATOM
      1 C1        -31.0220   28.6060    0.4650 C.ar      1 ZT2        -0.1500 
      2 C2        -31.3000   27.4720   -0.2810 C.ar      1 ZT2        -0.1500 
      3 C3        -31.8480   29.7120    0.3510 C.ar      1 ZT2        -0.1500 
      4 C4        -33.1840   32.2220    1.8450 C.ar      1 ZT2        -0.1500 
      5 C5        -32.4000   27.4850   -1.0960 C.ar      1 ZT2        -0.1500 
      6 C6        -32.4520   32.8150    2.8790 C.ar      1 ZT2        -0.1500 
      7 C7        -32.9340   29.7270   -0.4920 C.ar      1 ZT2         0.0284 
      8 C8        -33.3240   32.7580    0.5900 C.ar      1 ZT2         0.0284 
      9 C9        -32.7430   34.0160    0.3250 C.ar      1 ZT2        -0.1790 
     10 C10       -33.2130   28.5940   -1.2240 C.ar      1 ZT2        -0.1435 
     11 C11       -31.8660   34.0070    2.5600 C.ar      1 ZT2         0.0825 
     12 C12       -32.0150   34.5880    1.3400 C.ar      1 ZT2         0.0825 
     13 C13       -33.9430   30.7310   -0.7880 C.2       1 ZT2        -0.0140 
     14 C14       -34.9150   30.1040   -1.7170 C.2       1 ZT2         0.4946 
     15 C15       -34.1500   32.0360   -0.4180 C.2       1 ZT2        -0.1784 
     16 C16       -32.8460   34.6660   -1.0390 C.2       1 ZT2         0.9790 
     17 C17       -34.4110   28.7400   -2.0820 C.3       1 ZT2         0.2045 
     18 C18       -30.6430   35.7000    2.4880 C.3       1 ZT2         0.5600 
     19 O19       -31.8180   35.2260   -1.4970 O.co2     1 ZT2        -0.9000 
     20 O20       -35.9610   30.6070   -2.1200 O.2       1 ZT2        -0.5700 
     21 O21       -33.9450   34.5890   -1.7000 O.co2     1 ZT2        -0.9000 
     22 O22       -31.0870   34.7500    3.3480 O.3       1 ZT2        -0.3625 
     23 O23       -31.3650   35.7920    1.2490 O.3       1 ZT2        -0.3625 
     24 H1        -30.1669   28.6274    1.1309 H         1 ZT2         0.1500 
     25 H2        -30.6629   26.5970   -0.2209 H         1 ZT2         0.1500 
     26 H3        -31.6316   30.5928    0.9447 H         1 ZT2         0.1500 
     27 H4        -33.6730   31.2763    2.0489 H         1 ZT2         0.1500 
     28 H5        -32.6416   26.5923   -1.6614 H         1 ZT2         0.1500 
     29 H6        -32.3569   32.3627    3.8595 H         1 ZT2         0.1500 
     30 H7        -34.9685   32.5773   -0.8902 H         1 ZT2         0.1500 
     31 H8        -35.1591   27.9667   -1.8533 H         1 ZT2         0.0000 
     32 H9        -34.1440   28.6882   -3.1478 H         1 ZT2         0.0000 
     33 H10       -29.5910   35.4807    2.2529 H         1 ZT2         0.0000 
     34 H11       -30.7103   36.6745    2.9937 H         1 ZT2         0.0000 
@<TRIPOS>BOND
     1    1    2 ar   
     2    3    1 ar   
     3    5    2 ar   
     4    7    3 ar   
     5    4    6 ar   
     6    8    4 ar   
     7   10    5 ar   
     8    6   11 ar   
     9    7   10 ar   
    10   13    7 1    
    11    8    9 ar   
    12   15    8 1    
    13    9   12 ar   
    14    9   16 1    
    15   10   17 1    
    16   12   11 ar   
    17   11   22 1    
    18   12   23 1    
    19   13   14 1    
    20   13   15 2    
    21   14   17 1    
    22   14   20 2    
    23   16   19 ar   
    24   16   21 ar   
    25   22   18 1    
    26   18   23 1    
    27    1   24 1    
    28    2   25 1    
    29    3   26 1    
    30    4   27 1    
    31    5   28 1    
    32    6   29 1    
    33   15   30 1    
    34   17   31 1    
    35   17   32 1    
    36   18   33 1    
    37   18   34 1    
@<TRIPOS>SUBSTRUCTURE
     1 ZT2         1 PERM              0 ****  ****    0 ROOT 
@<TRIPOS>NORMAL
@<TRIPOS>ALT_TYPE
MMFF94_ALT_TYPE_SET 
MMFF94 17 CR 18 CR 1 CB 2 CB 3 CB 4 CB 5 CB 6 CB 7 CB 8 CB 9 CB 10 CB \
11 CB 12 CB 16 CO2M 14 C=OR 13 C=C 15 C=C 24 HC 25 HC \
26 HC 27 HC 28 HC 29 HC 30 HC 31 HC 32 HC 33 HC 34 HC \
19 O2CM 21 O2CM 20 O=CR 22 OC=C 23 OC=C 
