#	Name:			4jfs_ligand
#	Creating user name:	suminyi
#	Creation time:		Sun Sep 30 06:51:00 2018

#	Modifying user name:	suminyi
#	Modification time:	Sun Sep 30 06:51:00 2018

@<TRIPOS>MOLECULE
4jfs_ligand
   37    38     1     1     0
SMALL
MMFF94_CHARGES


@<TRIPOS>ATOM
      1 CAQ       -17.6530   15.2530   37.1670 C.3       1 MOL         0.2800 
      2 OAP       -18.0460   15.2260   35.7770 O.3       1 MOL        -0.3625 
      3 CAM       -17.5760   14.2980   34.8670 C.ar      1 MOL         0.0825 
      4 CAN       -18.0610   14.3710   33.5680 C.ar      1 MOL        -0.1500 
      5 CAO       -17.6660   13.4380   32.6130 C.ar      1 MOL        -0.1500 
      6 CAL       -16.6720   13.2870   35.2060 C.ar      1 MOL        -0.1500 
      7 CAK       -16.2640   12.3600   34.2490 C.ar      1 MOL        -0.1500 
      8 CAJ       -16.7620   12.4290   32.9440 C.ar      1 MOL        -0.1435 
      9 CAE       -16.4610   11.3580   31.9030 C.3       1 MOL         0.6465 
     10 CAG       -14.9650   10.9880   31.7290 C.3       1 MOL         0.2800 
     11 OAD       -14.2580   11.8570   30.8330 O.3       1 MOL        -0.6800 
     12 CAA       -15.0430    9.5270   31.2330 C.3       1 MOL         0.2800 
     13 OAC       -15.5120    9.4280   29.8650 O.3       1 MOL        -0.6800 
     14 CAF       -16.1480    9.0070   32.1660 C.3       1 MOL         0.5030 
     15 CAB       -16.5780    7.5610   31.8550 C.3       1 MOL         0.0000 
     16 NAH       -17.2290   10.0600   32.0930 N.4       1 MOL        -0.9590 
     17 CAI       -18.1380   10.0160   33.2980 C.3       1 MOL         0.5030 
     18 H1        -18.1620   16.0860   37.6590 H         1 MOL         0.0000 
     19 H2        -16.5710   15.3940   37.2370 H         1 MOL         0.0000 
     20 H3        -17.9450   14.3130   37.6420 H         1 MOL         0.0000 
     21 H4        -18.7700   15.1560   33.3130 H         1 MOL         0.1500 
     22 H5        -18.0990   13.4730   31.6170 H         1 MOL         0.1500 
     23 H6        -16.2900   13.1980   36.2150 H         1 MOL         0.1500 
     24 H7        -15.5970   11.5530   34.5440 H         1 MOL         0.1500 
     25 H8        -16.8030   11.7320   30.9340 H         1 MOL         0.0000 
     26 H9        -14.4640   10.9920   32.7020 H         1 MOL         0.0000 
     27 H10       -13.2640   11.8090   31.0720 H         1 MOL         0.4000 
     28 H11       -14.0940    9.0000   31.3770 H         1 MOL         0.0000 
     29 H12       -16.3990    9.8800   29.7590 H         1 MOL         0.4000 
     30 H13       -15.7650    9.0340   33.1930 H         1 MOL         0.0000 
     31 H14       -17.2750    7.2040   32.6160 H         1 MOL         0.0000 
     32 H15       -15.7080    6.9000   31.8690 H         1 MOL         0.0000 
     33 H16       -17.0550    7.4860   30.8770 H         1 MOL         0.0000 
     34 H17       -17.8160    9.9550   31.2120 H         1 MOL         0.4500 
     35 H18       -18.8940   10.7960   33.1890 H         1 MOL         0.0000 
     36 H19       -17.5460   10.1900   34.1990 H         1 MOL         0.0000 
     37 H20       -18.5980    9.0270   33.3500 H         1 MOL         0.0000 
@<TRIPOS>BOND
     1    1    2 1    
     2    2    3 1    
     3    3    4 ar   
     4    3    6 ar   
     5    4    5 ar   
     6    5    8 ar   
     7    6    7 ar   
     8    7    8 ar   
     9    8    9 1    
    10    9   10 1    
    11    9   16 1    
    12   10   11 1    
    13   10   12 1    
    14   12   13 1    
    15   12   14 1    
    16   14   15 1    
    17   14   16 1    
    18   16   17 1    
    19    1   18 1    
    20    1   19 1    
    21    1   20 1    
    22    4   21 1    
    23    5   22 1    
    24    6   23 1    
    25    7   24 1    
    26    9   25 1    
    27   10   26 1    
    28   11   27 1    
    29   12   28 1    
    30   13   29 1    
    31   14   30 1    
    32   15   31 1    
    33   15   32 1    
    34   15   33 1    
    35   16   34 1    
    36   17   35 1    
    37   17   36 1    
    38   17   37 1    
@<TRIPOS>SUBSTRUCTURE
     1 MOL         1 PERM              0 ****  ****    0 ROOT 
@<TRIPOS>NORMAL
@<TRIPOS>ALT_TYPE
MMFF94_ALT_TYPE_SET 
MMFF94 1 CR 9 CR 10 CR 12 CR 14 CR 15 CR 17 CR 3 CB 4 CB 5 CB 6 CB 7 CB \
8 CB 18 HC 19 HC 20 HC 21 HC 22 HC 23 HC 24 HC 25 HC 26 HC \
28 HC 30 HC 31 HC 32 HC 33 HC 35 HC 36 HC 37 HC 34 HNR+ \
27 HOR 29 HOR 2 OC=C 11 OR 13 OR 16 NR+ 
