#	Name:			4abg_ligand
#	Creating user name:	suminyi
#	Creation time:		Sun Sep 30 06:48:38 2018

#	Modifying user name:	suminyi
#	Modification time:	Sun Sep 30 06:48:38 2018

@<TRIPOS>MOLECULE
4abg_ligand
   36    37     1     1     0
SMALL
MMFF94_CHARGES


@<TRIPOS>ATOM
      1 C11       -21.6940    1.6930   14.2070 C.ar      1 UNNAMED    -0.1500 
      2 C10       -20.7800    1.3240   15.1610 C.ar      1 UNNAMED    -0.1500 
      3 C12       -22.6580    2.6400   14.4990 C.ar      1 UNNAMED    -0.1500 
      4 C8        -21.7440    2.8330   16.6880 C.ar      1 UNNAMED    -0.1500 
      5 C9        -20.7930    1.8550   16.4360 C.ar      1 UNNAMED    -0.1435 
      6 C7        -22.6740    3.2340   15.7550 C.ar      1 UNNAMED     0.1000 
      7 C3        -23.4610    4.8400   17.3730 C.3       1 UNNAMED     0.3691 
      8 C5        -24.1090    5.0000   14.8840 C.3       1 UNNAMED     0.3691 
      9 C2        -24.7060    5.7000   17.6530 C.3       1 UNNAMED     0.5030 
     10 C6        -25.4140    5.6390   15.3010 C.3       1 UNNAMED     0.5030 
     11 C15       -26.2420    7.3980   16.8240 C.3       1 UNNAMED     0.5030 
     12 C13       -19.7270    1.3530   17.4080 C.3       1 UNNAMED     0.6465 
     13 N4        -23.6680    4.1930   16.0490 N.pl3     1 UNNAMED    -0.8382 
     14 N1        -25.1340    6.5000   16.4750 N.4       1 UNNAMED    -0.9590 
     15 N14       -19.2050    2.4610   18.2260 N.4       1 UNNAMED    -0.8530 
     16 H1        -21.6604    1.2412   13.2222 H         1 UNNAMED     0.1500 
     17 H2        -20.0226    0.5916   14.9059 H         1 UNNAMED     0.1500 
     18 H3        -23.3953    2.9168   13.7542 H         1 UNNAMED     0.1500 
     19 H4        -21.7556    3.3033   17.6646 H         1 UNNAMED     0.1500 
     20 H5        -23.3475    4.0739   18.1542 H         1 UNNAMED     0.0000 
     21 H6        -22.5622    5.4736   17.3474 H         1 UNNAMED     0.0000 
     22 H7        -23.3621    5.7720   14.6472 H         1 UNNAMED     0.0000 
     23 H8        -24.2608    4.3551   14.0059 H         1 UNNAMED     0.0000 
     24 H9        -24.4783    6.3881   18.4804 H         1 UNNAMED     0.0000 
     25 H10       -25.5328    5.0359   17.9452 H         1 UNNAMED     0.0000 
     26 H11       -26.1434    4.8613   15.5712 H         1 UNNAMED     0.0000 
     27 H12       -25.8147    6.2470   14.4765 H         1 UNNAMED     0.0000 
     28 H13       -25.9624    8.0021   17.6997 H         1 UNNAMED     0.0000 
     29 H14       -27.1363    6.8025   17.0598 H         1 UNNAMED     0.0000 
     30 H15       -26.4573    8.0622   15.9740 H         1 UNNAMED     0.0000 
     31 H16       -18.9002    0.9049   16.8373 H         1 UNNAMED     0.0000 
     32 H17       -20.1700    0.5937   18.0692 H         1 UNNAMED     0.0000 
     33 H18       -24.3561    7.0879   16.2195 H         1 UNNAMED     0.4500 
     34 H19       -18.5042    2.1096   18.8596 H         1 UNNAMED     0.4500 
     35 H20       -19.9585    2.8732   18.7535 H         1 UNNAMED     0.4500 
     36 H21       -18.7949    3.1584   17.6247 H         1 UNNAMED     0.4500 
@<TRIPOS>BOND
     1    1    2 ar   
     2    3    1 ar   
     3    5    2 ar   
     4    6    3 ar   
     5    4    5 ar   
     6    6    4 ar   
     7    5   12 1    
     8   13    6 1    
     9    7    9 1    
    10   13    7 1    
    11    8   10 1    
    12    8   13 1    
    13    9   14 1    
    14   10   14 1    
    15   14   11 1    
    16   12   15 1    
    17    1   16 1    
    18    2   17 1    
    19    3   18 1    
    20    4   19 1    
    21    7   20 1    
    22    7   21 1    
    23    8   22 1    
    24    8   23 1    
    25    9   24 1    
    26    9   25 1    
    27   10   26 1    
    28   10   27 1    
    29   11   28 1    
    30   11   29 1    
    31   11   30 1    
    32   12   31 1    
    33   12   32 1    
    34   14   33 1    
    35   15   34 1    
    36   15   35 1    
    37   15   36 1    
@<TRIPOS>SUBSTRUCTURE
     1 UNNAMED     1 PERM              0 ****  ****    0 ROOT 
@<TRIPOS>NORMAL
@<TRIPOS>ALT_TYPE
MMFF94_ALT_TYPE_SET 
MMFF94 7 CR 8 CR 9 CR 10 CR 11 CR 12 CR 1 CB 2 CB 3 CB 4 CB 5 CB 6 CB \
16 HC 17 HC 18 HC 19 HC 20 HC 21 HC 22 HC 23 HC 24 HC \
25 HC 26 HC 27 HC 28 HC 29 HC 30 HC 31 HC 32 HC 33 HNR+ \
34 HNR+ 35 HNR+ 36 HNR+ 14 NR+ 15 NR+ 13 NC=C 
