#	Name:			4abg_ligand
#	Creating user name:	suminyi
#	Creation time:		Sun Sep 30 06:51:16 2018

#	Modifying user name:	suminyi
#	Modification time:	Sun Sep 30 06:51:16 2018

@<TRIPOS>MOLECULE
4abg_ligand
   36    37     1     1     0
SMALL
MMFF94_CHARGES


@<TRIPOS>ATOM
      1 C11       -21.6290    1.5920   14.2840 C.ar      1 MOL        -0.1500 
      2 C10       -20.7740    1.1260   15.2740 C.ar      1 MOL        -0.1500 
      3 C12       -22.5210    2.6240   14.5570 C.ar      1 MOL        -0.1500 
      4 C8        -21.6960    2.7300   16.8070 C.ar      1 MOL        -0.1500 
      5 C9        -20.7870    1.7040   16.5390 C.ar      1 MOL        -0.1435 
      6 C7        -22.5860    3.2130   15.8300 C.ar      1 MOL         0.1000 
      7 C3        -23.5170    4.8350   17.4820 C.3       1 MOL         0.3691 
      8 C5        -24.2440    4.9080   15.0240 C.3       1 MOL         0.3691 
      9 C2        -24.7600    5.7010   17.7970 C.3       1 MOL         0.5030 
     10 C6        -25.4350    5.7790   15.4840 C.3       1 MOL         0.5030 
     11 C15       -26.3780    7.4780   17.0650 C.3       1 MOL         0.5030 
     12 C13       -19.8530    1.1770   17.6200 C.3       1 MOL         0.6465 
     13 N4        -23.4970    4.2300   16.1180 N.pl3     1 MOL        -0.8382 
     14 N1        -25.1510    6.6600   16.6860 N.4       1 MOL        -0.9590 
     15 N14       -19.0970    2.2650   18.3270 N.4       1 MOL        -0.8530 
     16 H1        -21.6130    1.1400   13.2940 H         1 MOL         0.1500 
     17 H2        -20.1080    0.2990   15.0560 H         1 MOL         0.1500 
     18 H3        -23.1680    2.9260   13.7450 H         1 MOL         0.1500 
     19 H4        -21.6940    3.1350   17.8080 H         1 MOL         0.1500 
     20 H5        -23.4960    4.0460   18.2400 H         1 MOL         0.0000 
     21 H6        -22.6160    5.4440   17.6090 H         1 MOL         0.0000 
     22 H7        -23.5440    5.5300   14.4620 H         1 MOL         0.0000 
     23 H8        -24.6680    4.1690   14.3420 H         1 MOL         0.0000 
     24 H9        -24.5870    6.2780   18.7110 H         1 MOL         0.0000 
     25 H10       -25.6110    5.0340   17.9720 H         1 MOL         0.0000 
     26 H11       -26.2590    5.1120   15.7590 H         1 MOL         0.0000 
     27 H12       -25.7700    6.4120   14.6570 H         1 MOL         0.0000 
     28 H13       -26.1560    8.0770   17.9540 H         1 MOL         0.0000 
     29 H14       -27.2130    6.8010   17.2740 H         1 MOL         0.0000 
     30 H15       -26.6440    8.1420   16.2360 H         1 MOL         0.0000 
     31 H16       -19.1040    0.5090   17.1750 H         1 MOL         0.0000 
     32 H17       -20.4230    0.6030   18.3580 H         1 MOL         0.0000 
     33 H18       -24.3450    7.2930   16.4760 H         1 MOL         0.4500 
     34 H19       -18.3860    1.9000   19.0280 H         1 MOL         0.4500 
     35 H20       -19.6750    2.9590   18.8380 H         1 MOL         0.4500 
     36 H21       -18.4700    2.7570   17.6520 H         1 MOL         0.4500 
@<TRIPOS>BOND
     1    1    2 ar   
     2    3    1 ar   
     3    5    2 ar   
     4    6    3 ar   
     5    4    5 ar   
     6    6    4 ar   
     7    5   12 1    
     8   13    6 1    
     9    7    9 1    
    10   13    7 1    
    11    8   10 1    
    12    8   13 1    
    13    9   14 1    
    14   10   14 1    
    15   14   11 1    
    16   12   15 1    
    17    1   16 1    
    18    2   17 1    
    19    3   18 1    
    20    4   19 1    
    21    7   20 1    
    22    7   21 1    
    23    8   22 1    
    24    8   23 1    
    25    9   24 1    
    26    9   25 1    
    27   10   26 1    
    28   10   27 1    
    29   11   28 1    
    30   11   29 1    
    31   11   30 1    
    32   12   31 1    
    33   12   32 1    
    34   14   33 1    
    35   15   34 1    
    36   15   35 1    
    37   15   36 1    
@<TRIPOS>SUBSTRUCTURE
     1 MOL         1 PERM              0 ****  ****    0 ROOT 
@<TRIPOS>NORMAL
@<TRIPOS>ALT_TYPE
MMFF94_ALT_TYPE_SET 
MMFF94 7 CR 8 CR 9 CR 10 CR 11 CR 12 CR 1 CB 2 CB 3 CB 4 CB 5 CB 6 CB \
16 HC 17 HC 18 HC 19 HC 20 HC 21 HC 22 HC 23 HC 24 HC \
25 HC 26 HC 27 HC 28 HC 29 HC 30 HC 31 HC 32 HC 33 HNR+ \
34 HNR+ 35 HNR+ 36 HNR+ 14 NR+ 15 NR+ 13 NC=C 
