#	Name:			1p1n_ligand
#	Creating user name:	suminyi
#	Creation time:		Sun Sep 30 06:50:59 2018

#	Modifying user name:	suminyi
#	Modification time:	Sun Sep 30 06:50:59 2018

@<TRIPOS>MOLECULE
1p1n_ligand
   29    29     1     1     0
SMALL
MMFF94_CHARGES


@<TRIPOS>ATOM
      1 N          13.7030    2.8240   15.9680 N.4       1 MOL        -0.9060 
      2 CD         14.6850    3.9450   15.7450 C.3       1 MOL         0.5030 
      3 CD1        17.0500    5.1020   14.3940 C.2       1 MOL        -0.3000 
      4 CD2        18.6190    3.5450   15.4990 C.3       1 MOL         0.1382 
      5 CA         14.5400    1.5940   16.3280 C.3       1 MOL         0.3970 
      6 CB         15.9320    1.8660   15.7020 C.3       1 MOL         0.0000 
      7 CB1        15.9370    1.5560   14.1660 C.3       1 MOL        -0.1060 
      8 CG         16.1000    3.3830   15.9880 C.3       1 MOL         0.1382 
      9 CG1        16.0190    0.0930   13.7740 C.2       1 MOL         0.9060 
     10 CG2        17.2280    4.0820   15.2290 C.2       1 MOL        -0.2764 
     11 C          14.5970    1.3370   17.8450 C.2       1 MOL         0.9060 
     12 O          13.7470    1.8740   18.5420 O.co2     1 MOL        -0.9000 
     13 OD1        16.2900   -0.1330   12.6100 O.co2     1 MOL        -0.9000 
     14 OD2        15.9320   -0.7630   14.6370 O.co2     1 MOL        -0.9000 
     15 OXT        15.5150    0.7490   18.3870 O.co2     1 MOL        -0.9000 
     16 H1         13.1320    2.6660   15.0940 H         1 MOL         0.4500 
     17 H2         13.0120    3.0380   16.7150 H         1 MOL         0.4500 
     18 H3         14.4530    4.7800   16.4110 H         1 MOL         0.0000 
     19 H4         14.5710    4.2570   14.7040 H         1 MOL         0.0000 
     20 H5         17.8870    5.5750   13.8830 H         1 MOL         0.1500 
     21 H6         16.0790    5.5400   14.2020 H         1 MOL         0.1500 
     22 H7         18.6470    2.4560   15.4330 H         1 MOL         0.0000 
     23 H8         18.9490    3.8170   16.5010 H         1 MOL         0.0000 
     24 H9         19.3410    3.9450   14.7840 H         1 MOL         0.0000 
     25 H10        14.0870    0.7030   15.8830 H         1 MOL         0.0000 
     26 H11        16.7180    1.2810   16.1880 H         1 MOL         0.0000 
     27 H12        16.7990    2.0330   13.6990 H         1 MOL         0.0000 
     28 H13        15.0550    1.9830   13.6870 H         1 MOL         0.0000 
     29 H14        16.3050    3.4880   17.0560 H         1 MOL         0.0000 
@<TRIPOS>BOND
     1    1    2 1    
     2    1    5 1    
     3    2    8 1    
     4    5    6 1    
     5    5   11 1    
     6    6    7 1    
     7    6    8 1    
     8    7    9 1    
     9    8   10 1    
    10    9   13 ar   
    11    9   14 ar   
    12   11   12 ar   
    13   11   15 ar   
    14   10    4 1    
    15   10    3 2    
    16    1   16 1    
    17    1   17 1    
    18    2   18 1    
    19    2   19 1    
    20    3   20 1    
    21    3   21 1    
    22    4   22 1    
    23    4   23 1    
    24    4   24 1    
    25    5   25 1    
    26    6   26 1    
    27    7   27 1    
    28    7   28 1    
    29    8   29 1    
@<TRIPOS>SUBSTRUCTURE
     1 MOL         1 PERM              0 ****  ****    0 ROOT 
@<TRIPOS>NORMAL
@<TRIPOS>ALT_TYPE
MMFF94_ALT_TYPE_SET 
MMFF94 2 CR 4 CR 5 CR 6 CR 7 CR 8 CR 11 CO2M 9 CO2M 3 C=C 10 C=C 18 HC \
19 HC 20 HC 21 HC 22 HC 23 HC 24 HC 25 HC 26 HC 27 HC \
28 HC 29 HC 16 HNR+ 17 HNR+ 12 O2CM 13 O2CM 14 O2CM 15 O2CM \
1 NR+ 
