#	Name:			1p1n_ligand
#	Creating user name:	suminyi
#	Creation time:		Sun Sep 30 06:48:56 2018

#	Modifying user name:	suminyi
#	Modification time:	Sun Sep 30 06:48:56 2018

@<TRIPOS>MOLECULE
1p1n_ligand
   29    29     1     1     0
SMALL
MMFF94_CHARGES


@<TRIPOS>ATOM
      1 N          13.6940    3.0170   16.1000 N.4       1 KAI        -0.9060 
      2 CD         14.6330    4.1480   15.7670 C.3       1 KAI         0.5030 
      3 CD1        17.0860    5.0280   14.4380 C.2       1 KAI        -0.3000 
      4 CD2        18.5830    3.5700   15.6900 C.3       1 KAI         0.1382 
      5 CA         14.4440    1.8130   16.2830 C.3       1 KAI         0.3970 
      6 CB         15.8080    1.9430   15.6100 C.3       1 KAI         0.0000 
      7 CB1        15.7940    1.7100   14.0950 C.3       1 KAI        -0.1060 
      8 CG         15.9940    3.3470   15.7600 C.3       1 KAI         0.1382 
      9 CG1        15.8430    0.2610   13.6720 C.2       1 KAI         0.9060 
     10 CG2        17.2680    4.0640   15.2500 C.2       1 KAI        -0.2764 
     11 C          14.6040    1.4730   17.8000 C.2       1 KAI         0.9060 
     12 O          13.9600    2.2010   18.5850 O.co2     1 KAI        -0.9000 
     13 OD1        15.6720    0.0330   12.4540 O.co2     1 KAI        -0.9000 
     14 OD2        16.0610   -0.5940   14.5540 O.co2     1 KAI        -0.9000 
     15 OXT        15.3410    0.5050   18.0830 O.co2     1 KAI        -0.9000 
     16 H1         13.0372    2.8923   15.3456 H         1 KAI         0.4500 
     17 H2         13.1943    3.2338   16.9482 H         1 KAI         0.4500 
     18 H3         14.6212    4.9338   16.5366 H         1 KAI         0.0000 
     19 H4         14.4113    4.5925   14.7856 H         1 KAI         0.0000 
     20 H5         17.9404    5.5746   14.0414 H         1 KAI         0.1500 
     21 H6         16.0760    5.3058   14.1402 H         1 KAI         0.1500 
     22 H7         18.4447    2.7325   16.3896 H         1 KAI         0.0000 
     23 H8         19.1300    4.3812   16.1927 H         1 KAI         0.0000 
     24 H9         19.1569    3.2271   14.8165 H         1 KAI         0.0000 
     25 H10        13.8970    0.9883   15.8028 H         1 KAI         0.0000 
     26 H11        16.5763    1.3271   16.1002 H         1 KAI         0.0000 
     27 H12        16.6668    2.2213   13.6629 H         1 KAI         0.0000 
     28 H13        14.8720    2.1527   13.6901 H         1 KAI         0.0000 
     29 H14        16.2274    3.3734   16.8346 H         1 KAI         0.0000 
@<TRIPOS>BOND
     1    1    2 1    
     2    1    5 1    
     3    2    8 1    
     4    5    6 1    
     5    5   11 1    
     6    6    7 1    
     7    6    8 1    
     8    7    9 1    
     9    8   10 1    
    10    9   13 ar   
    11    9   14 ar   
    12   11   12 ar   
    13   11   15 ar   
    14   10    4 1    
    15   10    3 2    
    16    1   16 1    
    17    1   17 1    
    18    2   18 1    
    19    2   19 1    
    20    3   20 1    
    21    3   21 1    
    22    4   22 1    
    23    4   23 1    
    24    4   24 1    
    25    5   25 1    
    26    6   26 1    
    27    7   27 1    
    28    7   28 1    
    29    8   29 1    
@<TRIPOS>SUBSTRUCTURE
     1 KAI         1 PERM              0 ****  ****    0 ROOT 
@<TRIPOS>NORMAL
@<TRIPOS>ALT_TYPE
MMFF94_ALT_TYPE_SET 
MMFF94 2 CR 4 CR 5 CR 6 CR 7 CR 8 CR 11 CO2M 9 CO2M 3 C=C 10 C=C 18 HC \
19 HC 20 HC 21 HC 22 HC 23 HC 24 HC 25 HC 26 HC 27 HC \
28 HC 29 HC 16 HNR+ 17 HNR+ 12 O2CM 13 O2CM 14 O2CM 15 O2CM \
1 NR+ 
