#	Name:			3ag9_ligand
#	Creating user name:	suminyi
#	Creation time:		Sun Sep 30 06:51:04 2018

#	Modifying user name:	suminyi
#	Modification time:	Sun Sep 30 06:51:04 2018

@<TRIPOS>MOLECULE
3ag9_ligand
  140   142     1     1     0
SMALL
MMFF94_CHARGES


@<TRIPOS>ATOM
      1 N1          8.3340    4.0290   17.3620 N.ar      1 MOL        -0.6200 
      2 C2          7.5740    4.7620   16.5280 C.ar      1 MOL         0.4700 
      3 N3          7.8810    5.1170   15.2720 N.ar      1 MOL        -0.5670 
      4 C4          9.1150    4.7860   14.8740 C.ar      1 MOL         0.1054 
      5 C5          9.9980    4.1100   15.6520 C.ar      1 MOL         0.2272 
      6 C6          9.5510    3.7530   16.9100 C.ar      1 MOL         0.4100 
      7 N6         10.2600    3.0020   17.7460 N.pl3     1 MOL        -0.9000 
      8 N7         11.1780    3.8620   15.0460 N.2       1 MOL        -0.5653 
      9 C8         10.9730    4.4180   13.8200 C.2       1 MOL         0.0365 
     10 N9          9.7130    4.9750   13.7100 N.pl3     1 MOL         0.0476 
     11 OAL        11.7330    4.4080   10.5850 O.2       1 MOL        -0.5700 
     12 OAN         8.4720    7.6260   10.2330 O.3       1 MOL        -0.6800 
     13 OAO         9.2110    8.0910   12.7230 O.3       1 MOL        -0.6800 
     14 OBV         9.0440    4.7810   11.4350 O.3       1 MOL        -0.5600 
     15 CCC        10.9170    4.8860    9.8210 C.2       1 MOL         0.5690 
     16 CCK         9.6880    6.9520   10.6220 C.3       1 MOL         0.2800 
     17 CCL         9.8360    6.9380   12.1490 C.3       1 MOL         0.2800 
     18 CCM         9.5750    5.4580   10.2580 C.3       1 MOL         0.3410 
     19 CCN         9.1050    5.6600   12.5840 C.3       1 MOL         0.5356 
     20 CBZ        16.2770    1.3770    5.8290 C.2       1 MOL         0.5690 
     21 OAI        15.9530    1.0510    4.7050 O.2       1 MOL        -0.5700 
     22 CBG        15.7040    0.7250    7.0620 C.3       1 MOL         0.0610 
     23 CAX        14.2170    1.1010    7.2640 C.3       1 MOL         0.0000 
     24 CAU        14.0300    2.6280    7.4020 C.3       1 MOL         0.0000 
     25 CAW        12.5820    3.0040    7.7650 C.3       1 MOL         0.0000 
     26 CBD        12.4440    4.5340    7.9000 C.3       1 MOL         0.3001 
     27 NBR        11.1600    4.9210    8.4950 N.am      1 MOL        -0.7301 
     28 NBS        17.1440    2.3780    6.0460 N.am      1 MOL        -0.7301 
     29 CCI        17.6490    3.2770    4.9880 C.3       1 MOL         0.3611 
     30 CCB        16.5750    4.2070    4.4150 C.2       1 MOL         0.5690 
     31 OAK        15.7380    4.7620    5.0940 O.2       1 MOL        -0.5700 
     32 CBJ        18.8890    4.0800    5.4740 C.3       1 MOL         0.0000 
     33 CAZ        18.6380    4.9140    6.7550 C.3       1 MOL         0.0000 
     34 CAS        19.9100    5.6690    7.2110 C.3       1 MOL         0.0000 
     35 CAR        19.7500    6.0970    8.6800 C.3       1 MOL         0.5030 
     36 NAC        20.8890    6.8970    9.2540 N.4       1 MOL        -0.8530 
     37 CCA        16.4400   11.0130    1.5930 C.2       1 MOL         0.5690 
     38 OAJ        17.5980   11.3440    1.7080 O.2       1 MOL        -0.5700 
     39 CBH        15.9450   10.1390    0.4620 C.3       1 MOL         0.0610 
     40 CAY        16.5660    8.7240    0.5030 C.3       1 MOL         0.0000 
     41 CAT        15.7620    7.7530    1.3990 C.3       1 MOL         0.0000 
     42 CAV        16.6490    6.5930    1.9010 C.3       1 MOL         0.0000 
     43 CBC        15.8060    5.3890    2.3610 C.3       1 MOL         0.3001 
     44 NBQ        16.6270    4.4110    3.0860 N.am      1 MOL        -0.7301 
     45 NBT        15.5210   11.4370    2.4790 N.am      1 MOL        -0.7301 
     46 CCJ        15.7830   12.6130    3.3400 C.3       1 MOL         0.3611 
     47 CBK        14.8060   12.7390    4.5460 C.3       1 MOL         0.0000 
     48 CBB        13.2840   12.7020    4.2430 C.3       1 MOL         0.0000 
     49 CBF        12.7600   13.8830    3.3940 C.3       1 MOL         0.3276 
     50 NBP        12.6460   13.5100    1.9770 N.pl3     1 MOL        -0.8443 
     51 CBX        12.5900   14.3250    0.9190 C.cat     1 MOL         1.2000 
     52 NAB        12.7270   15.6360    1.0440 N.pl3     1 MOL        -0.9667 
     53 NAE        12.3260   13.8200   -0.2770 N.pl3     1 MOL        -0.9667 
     54 CCD        15.9590   13.9260    2.5610 C.2       1 MOL         0.5690 
     55 OAM        15.5240   14.1220    1.4420 O.2       1 MOL        -0.5700 
     56 N          16.6370   14.8690    3.2310 N.am      1 MOL        -0.7301 
     57 CA         16.9370   16.2460    2.7860 C.3       1 MOL         0.3611 
     58 CB         17.8020   16.9450    3.8730 C.3       1 MOL         0.0000 
     59 CG         17.1800   16.9140    5.3020 C.3       1 MOL         0.0000 
     60 CD         18.2690   17.0140    6.3940 C.3       1 MOL         0.3276 
     61 NE         18.3440   18.3630    6.9550 N.pl3     1 MOL        -0.8443 
     62 CZ         17.8970   18.7660    8.1480 C.cat     1 MOL         1.2000 
     63 NH1        17.1090   18.0130    8.9100 N.pl3     1 MOL        -0.9667 
     64 NH2        18.2590   19.9560    8.5870 N.pl3     1 MOL        -0.9667 
     65 C          15.7300   17.0960    2.3720 C.2       1 MOL         0.5690 
     66 O          14.5780   16.8820    2.6930 O.2       1 MOL        -0.5700 
     67 NAF        15.9840   18.1670    1.6210 N.am      1 MOL        -0.8000 
     68 H1          6.5750    5.0150   16.8680 H         1 MOL         0.1500 
     69 H2         11.2460    2.9340   17.5680 H         1 MOL         0.4000 
     70 H3          9.8830    2.8620   18.6850 H         1 MOL         0.4000 
     71 H4         11.6900    4.4380   13.0140 H         1 MOL         0.1500 
     72 H5          8.6810    8.5750   10.0570 H         1 MOL         0.4000 
     73 H6          8.5310    8.3730   12.0770 H         1 MOL         0.4000 
     74 H7         10.5570    7.4210   10.1490 H         1 MOL         0.0000 
     75 H8         10.8950    6.8860   12.4250 H         1 MOL         0.0000 
     76 H9          8.8720    5.3280    9.4350 H         1 MOL         0.0000 
     77 H10         8.0680    5.9100   12.8640 H         1 MOL         0.0000 
     78 H11        16.2890    1.0050    7.9410 H         1 MOL         0.0000 
     79 H12        15.8030   -0.3540    6.9430 H         1 MOL         0.0000 
     80 H13        13.8340    0.5980    8.1550 H         1 MOL         0.0000 
     81 H14        13.6360    0.7480    6.4100 H         1 MOL         0.0000 
     82 H15        14.2910    3.1190    6.4630 H         1 MOL         0.0000 
     83 H16        14.7060    3.0120    8.1710 H         1 MOL         0.0000 
     84 H17        12.3300    2.5400    8.7190 H         1 MOL         0.0000 
     85 H18        11.8870    2.6290    7.0120 H         1 MOL         0.0000 
     86 H19        12.5340    4.9930    6.9100 H         1 MOL         0.0000 
     87 H20        13.2520    4.9240    8.5290 H         1 MOL         0.0000 
     88 H21        10.4870    5.3780    7.9080 H         1 MOL         0.3700 
     89 H22        17.3260    2.6360    7.0000 H         1 MOL         0.3700 
     90 H23        17.9670    2.6450    4.1540 H         1 MOL         0.0000 
     91 H24        19.2360    4.7340    4.6700 H         1 MOL         0.0000 
     92 H25        19.7000    3.3790    5.6820 H         1 MOL         0.0000 
     93 H26        18.3160    4.2500    7.5630 H         1 MOL         0.0000 
     94 H27        17.8260    5.6290    6.5920 H         1 MOL         0.0000 
     95 H28        20.0720    6.5400    6.5700 H         1 MOL         0.0000 
     96 H29        20.7860    5.0200    7.1290 H         1 MOL         0.0000 
     97 H30        19.6550    5.2010    9.3060 H         1 MOL         0.0000 
     98 H31        18.8280    6.6740    8.8180 H         1 MOL         0.0000 
     99 H32        20.6500    7.2610   10.2240 H         1 MOL         0.4500 
    100 H33        21.0980    7.7870    8.7900 H         1 MOL         0.4500 
    101 H34        21.7740    6.3730    9.3770 H         1 MOL         0.4500 
    102 H35        16.2450   10.6320   -0.4650 H         1 MOL         0.0000 
    103 H36        14.8560   10.0850    0.4540 H         1 MOL         0.0000 
    104 H37        17.6040    8.7940    0.8430 H         1 MOL         0.0000 
    105 H38        16.5970    8.3150   -0.5110 H         1 MOL         0.0000 
    106 H39        14.9180    7.3620    0.8230 H         1 MOL         0.0000 
    107 H40        15.3500    8.2780    2.2650 H         1 MOL         0.0000 
    108 H41        17.2580    6.9550    2.7330 H         1 MOL         0.0000 
    109 H42        17.3330    6.2680    1.1130 H         1 MOL         0.0000 
    110 H43        15.3630    4.9040    1.4860 H         1 MOL         0.0000 
    111 H44        14.9900    5.7380    3.0020 H         1 MOL         0.0000 
    112 H45        17.3260    3.8970    2.5740 H         1 MOL         0.3700 
    113 H46        14.5800   11.1220    2.3700 H         1 MOL         0.3700 
    114 H47        16.7730   12.4520    3.7790 H         1 MOL         0.0000 
    115 H48        15.0300   13.6520    5.1070 H         1 MOL         0.0000 
    116 H49        15.0220   11.9160    5.2330 H         1 MOL         0.0000 
    117 H50        12.7730   12.7490    5.2110 H         1 MOL         0.0000 
    118 H51        12.9970   11.7420    3.8070 H         1 MOL         0.0000 
    119 H52        13.4100   14.7540    3.5260 H         1 MOL         0.0000 
    120 H53        11.7630   14.1550    3.7580 H         1 MOL         0.0000 
    121 H54        12.5030   12.5220    1.8380 H         1 MOL         0.4500 
    122 H55        12.7900   16.2380    0.2380 H         1 MOL         0.4500 
    123 H56        13.2890   15.9950    1.8200 H         1 MOL         0.4500 
    124 H57        12.3280   12.8240   -0.4410 H         1 MOL         0.4500 
    125 H58        12.4000   14.3820   -1.1120 H         1 MOL         0.4500 
    126 H59        16.9710   14.6250    4.1440 H         1 MOL         0.3700 
    127 H60        17.5450   16.1670    1.8800 H         1 MOL         0.0000 
    128 H61        18.0150   17.9800    3.5910 H         1 MOL         0.0000 
    129 H62        18.7700   16.4360    3.8850 H         1 MOL         0.0000 
    130 H63        16.6390   15.9840    5.4870 H         1 MOL         0.0000 
    131 H64        16.4380   17.7100    5.4120 H         1 MOL         0.0000 
    132 H65        19.2460   16.7510    5.9770 H         1 MOL         0.0000 
    133 H66        18.0480   16.2910    7.1870 H         1 MOL         0.0000 
    134 H67        18.9170   18.9920    6.3970 H         1 MOL         0.4500 
    135 H68        16.8970   18.2810    9.8650 H         1 MOL         0.4500 
    136 H69        16.8800   17.0360    8.6960 H         1 MOL         0.4500 
    137 H70        19.1710   20.3380    8.3930 H         1 MOL         0.4500 
    138 H71        17.8810   20.2970    9.4860 H         1 MOL         0.4500 
    139 H72        15.2180   18.7480    1.3360 H         1 MOL         0.3700 
    140 H73        16.9300   18.3930    1.3590 H         1 MOL         0.3700 
@<TRIPOS>BOND
     1    2    1 ar   
     2    6    1 ar   
     3    3    2 ar   
     4    4    3 ar   
     5    4    5 ar   
     6   10    4 1    
     7    5    6 ar   
     8    8    5 1    
     9    6    7 1    
    10    9    8 2    
    11   10    9 1    
    12   19   10 1    
    13   15   11 2    
    14   16   12 1    
    15   17   13 1    
    16   18   14 1    
    17   14   19 1    
    18   15   18 1    
    19   27   15 am   
    20   16   17 1    
    21   18   16 1    
    22   17   19 1    
    23   20   21 2    
    24   20   22 1    
    25   28   20 am   
    26   22   23 1    
    27   23   24 1    
    28   24   25 1    
    29   25   26 1    
    30   26   27 1    
    31   29   28 1    
    32   30   29 1    
    33   29   32 1    
    34   30   31 2    
    35   44   30 am   
    36   32   33 1    
    37   33   34 1    
    38   34   35 1    
    39   35   36 1    
    40   37   38 2    
    41   39   37 1    
    42   37   45 am   
    43   40   39 1    
    44   41   40 1    
    45   42   41 1    
    46   43   42 1    
    47   43   44 1    
    48   45   46 1    
    49   46   47 1    
    50   46   54 1    
    51   47   48 1    
    52   48   49 1    
    53   49   50 1    
    54   50   51 ar   
    55   51   52 ar   
    56   51   53 ar   
    57   54   55 2    
    58   54   56 am   
    59   56   57 1    
    60   57   58 1    
    61   57   65 1    
    62   58   59 1    
    63   59   60 1    
    64   60   61 1    
    65   61   62 ar   
    66   62   63 ar   
    67   62   64 ar   
    68   65   66 2    
    69   65   67 am   
    70    2   68 1    
    71    7   69 1    
    72    7   70 1    
    73    9   71 1    
    74   12   72 1    
    75   13   73 1    
    76   16   74 1    
    77   17   75 1    
    78   18   76 1    
    79   19   77 1    
    80   22   78 1    
    81   22   79 1    
    82   23   80 1    
    83   23   81 1    
    84   24   82 1    
    85   24   83 1    
    86   25   84 1    
    87   25   85 1    
    88   26   86 1    
    89   26   87 1    
    90   27   88 1    
    91   28   89 1    
    92   29   90 1    
    93   32   91 1    
    94   32   92 1    
    95   33   93 1    
    96   33   94 1    
    97   34   95 1    
    98   34   96 1    
    99   35   97 1    
   100   35   98 1    
   101   36   99 1    
   102   36  100 1    
   103   36  101 1    
   104   39  102 1    
   105   39  103 1    
   106   40  104 1    
   107   40  105 1    
   108   41  106 1    
   109   41  107 1    
   110   42  108 1    
   111   42  109 1    
   112   43  110 1    
   113   43  111 1    
   114   44  112 1    
   115   45  113 1    
   116   46  114 1    
   117   47  115 1    
   118   47  116 1    
   119   48  117 1    
   120   48  118 1    
   121   49  119 1    
   122   49  120 1    
   123   50  121 1    
   124   52  122 1    
   125   52  123 1    
   126   53  124 1    
   127   53  125 1    
   128   56  126 1    
   129   57  127 1    
   130   58  128 1    
   131   58  129 1    
   132   59  130 1    
   133   59  131 1    
   134   60  132 1    
   135   60  133 1    
   136   61  134 1    
   137   63  135 1    
   138   63  136 1    
   139   64  137 1    
   140   64  138 1    
   141   67  139 1    
   142   67  140 1    
@<TRIPOS>SUBSTRUCTURE
     1 MOL         1 PERM              0 ****  ****    0 ROOT 
@<TRIPOS>NORMAL
@<TRIPOS>ALT_TYPE
MMFF94_ALT_TYPE_SET 
MMFF94 16 CR 17 CR 18 CR 19 CR 22 CR 23 CR 24 CR 25 CR 26 CR 29 CR 32 CR \
33 CR 34 CR 35 CR 39 CR 40 CR 41 CR 42 CR 43 CR 46 CR \
47 CR 48 CR 49 CR 57 CR 58 CR 59 CR 60 CR 9 C5A 4 C5A \
5 C5B 2 CB 6 CB 51 CGD+ 62 CGD+ 15 C=ON 20 C=ON 30 C=ON \
37 C=ON 54 C=ON 65 C=ON 68 HC 71 HC 74 HC 75 HC 76 HC \
77 HC 78 HC 79 HC 80 HC 81 HC 82 HC 83 HC 84 HC 85 HC \
86 HC 87 HC 90 HC 91 HC 92 HC 93 HC 94 HC 95 HC 96 HC \
97 HC 98 HC 102 HC 103 HC 104 HC 105 HC 106 HC 107 HC \
108 HC 109 HC 110 HC 111 HC 114 HC 115 HC 116 HC 117 HC \
118 HC 119 HC 120 HC 127 HC 128 HC 129 HC 130 HC 131 HC \
132 HC 133 HC 121 HGD+ 122 HGD+ 123 HGD+ 124 HGD+ 125 HGD+ \
134 HGD+ 135 HGD+ 136 HGD+ 137 HGD+ 138 HGD+ 69 HNCC \
70 HNCC 88 HNCO 89 HNCO 112 HNCO 113 HNCO 126 HNCO \
139 HNCO 140 HNCO 99 HNR+ 100 HNR+ 101 HNR+ 72 HOR \
73 HOR 11 O=CN 21 O=CN 31 O=CN 38 O=CN 55 O=CN 66 O=CN \
12 OR 13 OR 14 OR 1 NPYD 3 NPYD 10 NPYL 8 N5B 36 NR+ \
50 NGD+ 52 NGD+ 53 NGD+ 61 NGD+ 63 NGD+ 64 NGD+ 27 NC=O \
28 NC=O 44 NC=O 45 NC=O 56 NC=O 67 NC=O 7 NC=N
