#	Name:			1sqa_ligand
#	Creating user name:	suminyi
#	Creation time:		Sun Sep 30 06:51:07 2018

#	Modifying user name:	suminyi
#	Modification time:	Sun Sep 30 06:51:07 2018

@<TRIPOS>MOLECULE
1sqa_ligand
   54    57     1     1     0
SMALL
MMFF94_CHARGES


@<TRIPOS>ATOM
      1 N1         29.3040   10.7850   28.4870 N.4       1 MOL        -0.8530 
      2 C2         27.9320   10.4310   29.0120 C.3       1 MOL         0.6465 
      3 C3         27.1460   11.5590   29.6850 C.ar      1 MOL        -0.1435 
      4 C4         26.6220   12.6010   28.9190 C.ar      1 MOL        -0.1500 
      5 C5         25.7120   13.5090   29.4740 C.ar      1 MOL        -0.1500 
      6 C6         25.3190   13.4090   30.8050 C.ar      1 MOL         0.1170 
      7 N7         24.2490   14.2520   31.2790 N.am      1 MOL        -0.5470 
      8 C8         24.4060   15.1580   32.3580 C.2       1 MOL         0.5438 
      9 O9         25.5210   15.1600   32.8630 O.2       1 MOL        -0.5700 
     10 C10        23.4090   16.0020   32.8230 C.ar      1 MOL         0.0862 
     11 C11        23.6930   16.9690   33.8770 C.ar      1 MOL        -0.1500 
     12 C12        22.7810   17.9160   34.3040 C.ar      1 MOL         0.1000 
     13 N13        23.1440   18.9080   35.1920 N.pl3     1 MOL        -0.6000 
     14 C14        23.7310   18.8850   36.3990 C.ar      1 MOL         0.7200 
     15 N15        24.1630   20.0630   36.8540 N.ar      1 MOL        -0.6200 
     16 C16        24.6740   20.0400   38.0990 C.ar      1 MOL         0.1600 
     17 C17        24.7380   18.8840   38.8530 C.ar      1 MOL        -0.1500 
     18 C18        24.2420   17.7290   38.2810 C.ar      1 MOL         0.1600 
     19 N19        23.7310   17.7280   37.0430 N.ar      1 MOL        -0.6200 
     20 C20        21.4380   17.8710   33.7670 C.ar      1 MOL         0.0000 
     21 C21        20.4930   18.7810   34.1870 C.ar      1 MOL        -0.1500 
     22 C22        19.1290   18.7540   33.7150 C.ar      1 MOL        -0.0220 
     23 C23        18.7880   17.6690   32.8160 C.ar      1 MOL        -0.1500 
     24 C24        19.7430   16.7780   32.3520 C.ar      1 MOL        -0.1500 
     25 C25        21.1070   16.8640   32.8100 C.ar      1 MOL         0.0000 
     26 C26        22.0500   15.9900   32.3070 C.ar      1 MOL        -0.1500 
     27 C27        18.2400   19.7350   34.0960 C.cat     1 MOL         0.7308 
     28 N28        18.5770   20.8840   34.6860 N.pl3     1 MOL        -1.1924 
     29 N29        16.9340   19.8030   33.8260 N.pl3     1 MOL        -1.1924 
     30 C30        25.8790   12.4000   31.5900 C.ar      1 MOL        -0.1500 
     31 C31        26.7800   11.4800   31.0350 C.ar      1 MOL        -0.1500 
     32 H1         29.8200    9.9140   28.1510 H         1 MOL         0.4500 
     33 H2         29.9120   11.2040   29.2020 H         1 MOL         0.4500 
     34 H3         29.2840   11.3940   27.6570 H         1 MOL         0.4500 
     35 H4         28.0590    9.6110   29.7230 H         1 MOL         0.0000 
     36 H5         27.3510   10.0410   28.1660 H         1 MOL         0.0000 
     37 H6         26.8720   12.6560   27.8640 H         1 MOL         0.1500 
     38 H7         25.2460   14.2680   28.8510 H         1 MOL         0.1500 
     39 H8         23.5930   14.5270   30.5630 H         1 MOL         0.3700 
     40 H9         24.7000   16.9830   34.2860 H         1 MOL         0.1500 
     41 H10        22.7880   19.8350   35.0120 H         1 MOL         0.4000 
     42 H11        25.0370   20.9890   38.4890 H         1 MOL         0.1500 
     43 H12        25.1520   18.8740   39.8570 H         1 MOL         0.1500 
     44 H13        24.2430   16.7790   38.8120 H         1 MOL         0.1500 
     45 H14        20.7370   19.5180   34.9240 H         1 MOL         0.1500 
     46 H15        17.7700   17.6220   32.4400 H         1 MOL         0.1500 
     47 H16        19.4730   16.0140   31.6240 H         1 MOL         0.1500 
     48 H17        21.7800   15.2790   31.5290 H         1 MOL         0.1500 
     49 H18        17.8320   21.3510   35.2310 H         1 MOL         0.6690 
     50 H19        19.4990   20.9570   35.0950 H         1 MOL         0.6690 
     51 H20        16.4350   18.9230   33.9020 H         1 MOL         0.6690 
     52 H21        16.4020   20.5180   34.3490 H         1 MOL         0.6690 
     53 H22        25.5800   12.3100   32.6300 H         1 MOL         0.1500 
     54 H23        27.1560   10.6660   31.6510 H         1 MOL         0.1500 
@<TRIPOS>BOND
     1    1    2 1    
     2    2    3 1    
     3    3    4 ar   
     4    3   31 ar   
     5    4    5 ar   
     6    5    6 ar   
     7    6    7 1    
     8    6   30 ar   
     9    7    8 am   
    10    8    9 2    
    11    8   10 1    
    12   10   11 ar   
    13   10   26 ar   
    14   11   12 ar   
    15   12   13 1    
    16   12   20 ar   
    17   13   14 1    
    18   14   15 ar   
    19   14   19 ar   
    20   15   16 ar   
    21   16   17 ar   
    22   17   18 ar   
    23   18   19 ar   
    24   20   21 ar   
    25   20   25 ar   
    26   21   22 ar   
    27   22   23 ar   
    28   22   27 1    
    29   23   24 ar   
    30   24   25 ar   
    31   25   26 ar   
    32   27   28 ar   
    33   27   29 ar   
    34   30   31 ar   
    35    1   32 1    
    36    1   33 1    
    37    1   34 1    
    38    2   35 1    
    39    2   36 1    
    40    4   37 1    
    41    5   38 1    
    42    7   39 1    
    43   11   40 1    
    44   13   41 1    
    45   16   42 1    
    46   17   43 1    
    47   18   44 1    
    48   21   45 1    
    49   23   46 1    
    50   24   47 1    
    51   26   48 1    
    52   28   49 1    
    53   28   50 1    
    54   29   51 1    
    55   29   52 1    
    56   30   53 1    
    57   31   54 1    
@<TRIPOS>SUBSTRUCTURE
     1 MOL         1 PERM              0 ****  ****    0 ROOT 
@<TRIPOS>NORMAL
@<TRIPOS>ALT_TYPE
MMFF94_ALT_TYPE_SET 
MMFF94 2 CR 3 CB 4 CB 5 CB 6 CB 10 CB 11 CB 12 CB 14 CB 16 CB 17 CB \
18 CB 20 CB 21 CB 22 CB 23 CB 24 CB 25 CB 26 CB 30 CB \
31 CB 27 CNN+ 8 C=ON 35 HC 36 HC 37 HC 38 HC 40 HC 42 HC \
43 HC 44 HC 45 HC 46 HC 47 HC 48 HC 53 HC 54 HC 39 HNCC \
41 HNCC 32 HNR+ 33 HNR+ 34 HNR+ 49 HN 50 HN 51 HN 52 HN \
9 O=CN 15 NPYD 19 NPYD 1 NR+ 28 NCN+ 29 NCN+ 7 NC=O 13 NC=N \

