#	Name:			2zda_ligand
#	Creating user name:	suminyi
#	Creation time:		Sun Sep 30 06:51:00 2018

#	Modifying user name:	suminyi
#	Modification time:	Sun Sep 30 06:51:00 2018

@<TRIPOS>MOLECULE
2zda_ligand
   58    60     1     1     0
SMALL
MMFF94_CHARGES


@<TRIPOS>ATOM
      1 N1         18.5690  -13.4100   21.8720 N.am      1 MOL        -0.6602 
      2 C1         18.3280  -12.1790   21.0790 C.3       1 MOL         0.3611 
      3 C7         16.9640  -12.1680   20.3960 C.2       1 MOL         0.5690 
      4 O22        16.5380  -13.1420   19.8050 O.2       1 MOL        -0.5700 
      5 N23        16.2570  -11.0280   20.4490 N.am      1 MOL        -0.7301 
      6 C24        14.8920  -10.9190   19.9220 C.3       1 MOL         0.4436 
      7 C25        13.8440  -10.9660   21.0100 C.ar      1 MOL        -0.1435 
      8 C26        13.3030  -12.1730   21.4440 C.ar      1 MOL        -0.1500 
      9 C27        12.2930  -12.1830   22.4070 C.ar      1 MOL        -0.1500 
     10 C28        11.8250  -10.9820   22.9600 C.ar      1 MOL        -0.0220 
     11 C21        10.7680  -10.9690   24.0060 C.cat     1 MOL         0.7308 
     12 N46        10.5070   -9.8110   24.6960 N.pl3     1 MOL        -1.1924 
     13 N47        10.3170  -12.1170   24.6210 N.pl3     1 MOL        -1.1924 
     14 C29        12.3920   -9.7770   22.5210 C.ar      1 MOL        -0.1500 
     15 C30        13.3880   -9.7720   21.5530 C.ar      1 MOL        -0.1500 
     16 C2         19.4560  -12.1240   20.0290 C.3       1 MOL         0.0000 
     17 C3         20.5500  -13.0430   20.5820 C.3       1 MOL         0.0000 
     18 C4         19.7980  -14.0770   21.4280 C.3       1 MOL         0.3001 
     19 C14        17.6540  -13.8820   22.7560 C.2       1 MOL         0.5690 
     20 C5         17.8040  -15.2820   23.3620 C.3       1 MOL         0.5640 
     21 N13        16.4800  -16.0530   23.3600 N.4       1 MOL        -0.8530 
     22 C33        18.3530  -15.1880   24.8050 C.3       1 MOL         0.1435 
     23 O32        16.6460  -13.2560   23.0180 O.2       1 MOL        -0.5700 
     24 C6         19.7740  -14.6630   24.8620 C.ar      1 MOL        -0.1435 
     25 C8         20.8570  -15.5070   24.5990 C.ar      1 MOL        -0.1500 
     26 C9         22.1610  -15.0120   24.6500 C.ar      1 MOL        -0.1500 
     27 C10        22.3850  -13.6760   24.9670 C.ar      1 MOL        -0.1500 
     28 C11        21.3120  -12.8440   25.2670 C.ar      1 MOL        -0.1500 
     29 C12        20.0120  -13.3340   25.2110 C.ar      1 MOL        -0.1500 
     30 H1         18.3800  -11.3070   21.7400 H         1 MOL         0.0000 
     31 H2         16.6490  -10.2360   20.9560 H         1 MOL         0.3700 
     32 H3         14.7020  -11.7040   19.1820 H         1 MOL         0.0000 
     33 H4         14.7980   -9.9680   19.4110 H         1 MOL         0.0000 
     34 H5         13.6700  -13.1100   21.0270 H         1 MOL         0.1500 
     35 H6         11.8830  -13.1420   22.7200 H         1 MOL         0.1500 
     36 H7          9.6700   -9.8760   25.2900 H         1 MOL         0.6690 
     37 H8         10.4650   -8.9920   24.1180 H         1 MOL         0.6690 
     38 H9         10.3660  -12.9770   24.0800 H         1 MOL         0.6690 
     39 H10         9.4270  -12.0140   25.1260 H         1 MOL         0.6690 
     40 H11        12.0780   -8.8200   22.9270 H         1 MOL         0.1500 
     41 H12        13.8090   -8.8300   21.2100 H         1 MOL         0.1500 
     42 H13        19.8150  -11.1060   19.8560 H         1 MOL         0.0000 
     43 H14        19.1070  -12.5300   19.0760 H         1 MOL         0.0000 
     44 H15        21.2330  -12.4760   21.2200 H         1 MOL         0.0000 
     45 H16        21.1180  -13.5130   19.7780 H         1 MOL         0.0000 
     46 H17        19.5380  -14.9410   20.8070 H         1 MOL         0.0000 
     47 H18        20.4180  -14.3930   22.2690 H         1 MOL         0.0000 
     48 H19        18.5190  -15.8220   22.7360 H         1 MOL         0.0000 
     49 H20        16.5220  -16.9330   23.8920 H         1 MOL         0.4500 
     50 H21        16.1240  -16.2210   22.4030 H         1 MOL         0.4500 
     51 H22        15.7490  -15.4300   23.8010 H         1 MOL         0.4500 
     52 H23        18.3370  -16.1740   25.2760 H         1 MOL         0.0000 
     53 H24        17.6990  -14.5510   25.4090 H         1 MOL         0.0000 
     54 H25        20.6960  -16.5550   24.3640 H         1 MOL         0.1500 
     55 H26        23.0100  -15.6690   24.4650 H         1 MOL         0.1500 
     56 H27        23.4010  -13.2910   25.0140 H         1 MOL         0.1500 
     57 H28        21.4850  -11.8140   25.5660 H         1 MOL         0.1500 
     58 H29        19.1910  -12.6740   25.4700 H         1 MOL         0.1500 
@<TRIPOS>BOND
     1    1    2 1    
     2    1   18 1    
     3    1   19 am   
     4    2    3 1    
     5    2   16 1    
     6    3    4 2    
     7    3    5 am   
     8    5    6 1    
     9    6    7 1    
    10    7    8 ar   
    11    7   15 ar   
    12    8    9 ar   
    13    9   10 ar   
    14   10   11 1    
    15   10   14 ar   
    16   11   12 ar   
    17   11   13 ar   
    18   14   15 ar   
    19   16   17 1    
    20   17   18 1    
    21   19   20 1    
    22   19   23 2    
    23   20   21 1    
    24   20   22 1    
    25   22   24 1    
    26   24   25 ar   
    27   24   29 ar   
    28   25   26 ar   
    29   26   27 ar   
    30   27   28 ar   
    31   28   29 ar   
    32    2   30 1    
    33    5   31 1    
    34    6   32 1    
    35    6   33 1    
    36    8   34 1    
    37    9   35 1    
    38   12   36 1    
    39   12   37 1    
    40   13   38 1    
    41   13   39 1    
    42   14   40 1    
    43   15   41 1    
    44   16   42 1    
    45   16   43 1    
    46   17   44 1    
    47   17   45 1    
    48   18   46 1    
    49   18   47 1    
    50   20   48 1    
    51   21   49 1    
    52   21   50 1    
    53   21   51 1    
    54   22   52 1    
    55   22   53 1    
    56   25   54 1    
    57   26   55 1    
    58   27   56 1    
    59   28   57 1    
    60   29   58 1    
@<TRIPOS>SUBSTRUCTURE
     1 MOL         1 PERM              0 ****  ****    0 ROOT 
@<TRIPOS>NORMAL
@<TRIPOS>ALT_TYPE
MMFF94_ALT_TYPE_SET 
MMFF94 2 CR 6 CR 16 CR 17 CR 18 CR 20 CR 22 CR 7 CB 8 CB 9 CB 10 CB \
14 CB 15 CB 24 CB 25 CB 26 CB 27 CB 28 CB 29 CB 11 CNN+ \
19 C=ON 3 C=ON 30 HC 32 HC 33 HC 34 HC 35 HC 40 HC \
41 HC 42 HC 43 HC 44 HC 45 HC 46 HC 47 HC 48 HC 52 HC \
53 HC 54 HC 55 HC 56 HC 57 HC 58 HC 31 HNCO 49 HNR+ 50 HNR+ \
51 HNR+ 36 HN 37 HN 38 HN 39 HN 23 O=CN 4 O=CN 21 NR+ \
12 NCN+ 13 NCN+ 1 NC=O 5 NC=O 
