#	Name:			1o5b_ligand
#	Creating user name:	suminyi
#	Creation time:		Sun Sep 30 06:50:59 2018

#	Modifying user name:	suminyi
#	Modification time:	Sun Sep 30 06:50:59 2018

@<TRIPOS>MOLECULE
1o5b_ligand
   21    22     1     1     0
SMALL
MMFF94_CHARGES


@<TRIPOS>ATOM
      1 C0          8.2240   -0.9680   25.8340 C.cat     1 MOL         0.7838 
      2 C1          8.5620    0.3810   25.4180 C.2       1 MOL        -0.0350 
      3 N1          7.3170   -1.2190   26.8370 N.pl3     1 MOL        -1.1924 
      4 N2          8.3390   -2.0210   24.9670 N.pl3     1 MOL        -1.1924 
      5 S2          9.3010    0.6400   23.8290 S.3       1 MOL        -0.0800 
      6 C3          9.1940    2.3670   24.1060 C.ar      1 MOL         0.0400 
      7 C4          8.6910    2.7030   25.3330 C.ar      1 MOL         0.0000 
      8 C5          8.3310    1.5620   26.1040 C.2       1 MOL        -0.1500 
      9 C6          9.5160    3.3420   23.1670 C.ar      1 MOL        -0.1500 
     10 C7          9.3260    4.6850   23.5050 C.ar      1 MOL        -0.1500 
     11 C8          8.8310    5.0320   24.7690 C.ar      1 MOL        -0.1500 
     12 C9          8.5100    4.0360   25.6940 C.ar      1 MOL         0.0810 
     13 I9          7.7330    4.5550   27.5770 I         1 MOL        -0.0810 
     14 H1          7.3320   -2.1940   27.1660 H         1 MOL         0.6690 
     15 H2          7.2790   -0.5410   27.5890 H         1 MOL         0.6690 
     16 H3          9.0160   -1.8950   24.2370 H         1 MOL         0.6690 
     17 H4          8.3700   -2.9440   25.4170 H         1 MOL         0.6690 
     18 H5          7.8700    1.6130   27.0790 H         1 MOL         0.1500 
     19 H6          9.8670    3.0580   22.1740 H         1 MOL         0.1500 
     20 H7          9.5340    5.4570   22.7660 H         1 MOL         0.1500 
     21 H8          8.6620    6.0770   25.0200 H         1 MOL         0.1500 
@<TRIPOS>BOND
     1    1    2 1    
     2    1    3 ar   
     3    1    4 ar   
     4    2    5 1    
     5    2    8 2    
     6    5    6 1    
     7    6    7 ar   
     8    6    9 ar   
     9    7    8 1    
    10    7   12 ar   
    11    9   10 ar   
    12   10   11 ar   
    13   11   12 ar   
    14   12   13 1    
    15    3   14 1    
    16    3   15 1    
    17    4   16 1    
    18    4   17 1    
    19    8   18 1    
    20    9   19 1    
    21   10   20 1    
    22   11   21 1    
@<TRIPOS>SUBSTRUCTURE
     1 MOL         1 PERM              0 ****  ****    0 ROOT 
@<TRIPOS>NORMAL
@<TRIPOS>ALT_TYPE
MMFF94_ALT_TYPE_SET 
MMFF94 2 C5A 6 C5A 8 C5B 7 C5B 9 CB 10 CB 11 CB 12 CB 1 CNN+ 18 HC 19 HC \
20 HC 21 HC 14 HN 15 HN 16 HN 17 HN 3 NCN+ 4 NCN+ 5 STHI \
13 I 
