#	Name:			2iwx_ligand
#	Creating user name:	suminyi
#	Creation time:		Sun Sep 30 06:50:56 2018

#	Modifying user name:	suminyi
#	Modification time:	Sun Sep 30 06:50:56 2018

@<TRIPOS>MOLECULE
2iwx_ligand
   45    46     1     1     0
SMALL
MMFF94_CHARGES


@<TRIPOS>ATOM
      1 C1         55.3400   75.7760   -5.9090 C.2       1 MOL         0.6338 
      2 C2         55.2050   76.6550   -4.6810 C.ar      1 MOL         0.0862 
      3 C3         54.1780   77.6050   -4.6890 C.ar      1 MOL         0.0825 
      4 C4         54.0790   78.5790   -3.7150 C.ar      1 MOL        -0.1500 
      5 C5         54.9660   78.6040   -2.6630 C.ar      1 MOL         0.0825 
      6 C6         55.9150   77.5900   -2.5420 C.ar      1 MOL         0.1770 
      7 C7         56.0590   76.6120   -3.5470 C.ar      1 MOL        -0.1435 
      8 C8         57.0600   75.4710   -3.3090 C.3       1 MOL         0.2045 
      9 C9         58.4020   75.6130   -3.9810 C.2       1 MOL         0.4480 
     10 C10        58.8880   77.0130   -4.2930 C.3       1 MOL         0.0610 
     11 C11        60.3630   77.0320   -4.7520 C.3       1 MOL         0.0000 
     12 C12        60.8340   78.4420   -5.1680 C.3       1 MOL         0.0000 
     13 C13        60.0680   79.0470   -6.3690 C.3       1 MOL         0.0000 
     14 C14        60.0720   78.1540   -7.6350 C.3       1 MOL         0.1382 
     15 C15        58.7380   77.4770   -7.8920 C.2       1 MOL        -0.2882 
     16 C16        58.5740   76.1590   -7.9570 C.2       1 MOL        -0.2882 
     17 C17        57.2610   75.4880   -8.3170 C.3       1 MOL         0.1382 
     18 C18        56.8060   74.4270   -7.2880 C.3       1 MOL         0.2800 
     19 O2         54.4860   75.7340   -6.7810 O.2       1 MOL        -0.5700 
     20 O3         53.2500   77.6300   -5.6630 O.3       1 MOL        -0.5325 
     21 O4         54.8900   79.6370   -1.7780 O.3       1 MOL        -0.5325 
     22 Cl1        56.8990   77.5720   -1.1150 Cl        1 MOL        -0.1770 
     23 O5         59.0460   74.6170   -4.2500 O.2       1 MOL        -0.5700 
     24 O1         56.4740   75.0630   -6.0300 O.3       1 MOL        -0.4300 
     25 H1         53.2930   79.3230   -3.8020 H         1 MOL         0.1500 
     26 H2         56.6290   74.5440   -3.6590 H         1 MOL         0.0000 
     27 H3         57.2410   75.2960   -2.2540 H         1 MOL         0.0000 
     28 H4         58.7800   77.6420   -3.4080 H         1 MOL         0.0000 
     29 H5         58.2410   77.4210   -5.0700 H         1 MOL         0.0000 
     30 H6         60.5030   76.3350   -5.5810 H         1 MOL         0.0000 
     31 H7         60.9960   76.6770   -3.9350 H         1 MOL         0.0000 
     32 H8         61.8970   78.3940   -5.4200 H         1 MOL         0.0000 
     33 H9         60.7500   79.1210   -4.3160 H         1 MOL         0.0000 
     34 H10        60.5600   79.9920   -6.6120 H         1 MOL         0.0000 
     35 H11        59.0460   79.3100   -6.0850 H         1 MOL         0.0000 
     36 H12        60.8860   77.4270   -7.5870 H         1 MOL         0.0000 
     37 H13        60.2940   78.7890   -8.4910 H         1 MOL         0.0000 
     38 H14        57.8990   78.1510   -8.0660 H         1 MOL         0.1500 
     39 H15        59.4190   75.4960   -7.7760 H         1 MOL         0.1500 
     40 H16        57.3880   74.9800   -9.2740 H         1 MOL         0.0000 
     41 H17        56.4730   76.2320   -8.4570 H         1 MOL         0.0000 
     42 H18        57.6220   73.7220   -7.1120 H         1 MOL         0.0000 
     43 H19        55.9380   73.8720   -7.6630 H         1 MOL         0.0000 
     44 H20        53.5370   77.0140   -6.3830 H         1 MOL         0.4500 
     45 H21        54.3470   80.3430   -2.1900 H         1 MOL         0.4500 
@<TRIPOS>BOND
     1    1    2 1    
     2    1   19 2    
     3    1   24 1    
     4    2    3 ar   
     5    2    7 ar   
     6    3    4 ar   
     7    3   20 1    
     8    4    5 ar   
     9    5    6 ar   
    10    5   21 1    
    11    6    7 ar   
    12    6   22 1    
    13    7    8 1    
    14    8    9 1    
    15    9   10 1    
    16    9   23 2    
    17   10   11 1    
    18   11   12 1    
    19   12   13 1    
    20   13   14 1    
    21   14   15 1    
    22   15   16 2    
    23   16   17 1    
    24   17   18 1    
    25   18   24 1    
    26    4   25 1    
    27    8   26 1    
    28    8   27 1    
    29   10   28 1    
    30   10   29 1    
    31   11   30 1    
    32   11   31 1    
    33   12   32 1    
    34   12   33 1    
    35   13   34 1    
    36   13   35 1    
    37   14   36 1    
    38   14   37 1    
    39   15   38 1    
    40   16   39 1    
    41   17   40 1    
    42   17   41 1    
    43   18   42 1    
    44   18   43 1    
    45   20   44 1    
    46   21   45 1    
@<TRIPOS>SUBSTRUCTURE
     1 MOL         1 PERM              0 ****  ****    0 ROOT 
@<TRIPOS>NORMAL
@<TRIPOS>ALT_TYPE
MMFF94_ALT_TYPE_SET 
MMFF94 8 CR 10 CR 11 CR 12 CR 13 CR 14 CR 17 CR 18 CR 2 CB 3 CB 4 CB \
5 CB 6 CB 7 CB 1 COO 9 C=OR 15 C=C 16 C=C 25 HC 26 HC \
27 HC 28 HC 29 HC 30 HC 31 HC 32 HC 33 HC 34 HC 35 HC \
36 HC 37 HC 38 HC 39 HC 40 HC 41 HC 42 HC 43 HC 44 HOCC \
45 HOCC 19 O=CO 23 O=CR 24 OC=O 20 OC=C 21 OC=C 22 CL \

