#	Name:			2wnc_ligand
#	Creating user name:	suminyi
#	Creation time:		Sun Sep 30 06:51:01 2018

#	Modifying user name:	suminyi
#	Modification time:	Sun Sep 30 06:51:01 2018

@<TRIPOS>MOLECULE
2wnc_ligand
   42    45     1     1     0
SMALL
MMFF94_CHARGES


@<TRIPOS>ATOM
      1 C12       -72.2400  -51.7570  -72.9250 C.2       1 MOL        -0.0860 
      2 O4        -73.1070  -50.7660  -74.9130 O.2       1 MOL        -0.5700 
      3 C8        -70.2890  -44.5270  -73.7710 C.3       1 MOL         0.5030 
      4 C9        -72.5990  -50.6480  -73.8170 C.2       1 MOL         0.8060 
      5 C11       -71.5100  -51.6600  -71.7510 C.2       1 MOL        -0.3016 
      6 O3        -72.3500  -49.4360  -73.2640 O.3       1 MOL        -0.4300 
      7 C7        -69.8800  -47.5700  -73.2440 C.3       1 MOL         0.0000 
      8 C6        -70.7160  -47.0750  -72.0410 C.3       1 MOL         0.0000 
      9 N1        -71.2360  -45.6980  -73.9640 N.4       1 MOL        -0.9590 
     10 C5        -71.8230  -46.2150  -72.6810 C.3       1 MOL         0.5030 
     11 C4        -73.0520  -47.0970  -73.0070 C.3       1 MOL         0.0000 
     12 C1        -70.5580  -46.9330  -74.4770 C.3       1 MOL         0.5030 
     13 C2        -71.6440  -47.8770  -75.0460 C.3       1 MOL         0.0000 
     14 C3        -72.7420  -48.2440  -74.0070 C.3       1 MOL         0.2800 
     15 C13       -72.7230  -55.8900  -72.9050 C.ar      1 MOL        -0.1500 
     16 C15       -71.9640  -53.8020  -72.0350 C.ar      1 MOL        -0.1516 
     17 C16       -72.5210  -53.1420  -73.0890 C.ar      1 MOL         0.0000 
     18 C17       -73.2010  -53.8210  -74.0950 C.ar      1 MOL        -0.1500 
     19 C18       -73.2970  -55.2130  -73.9930 C.ar      1 MOL        -0.1500 
     20 N10       -71.3370  -52.9380  -71.2160 N.pl3     1 MOL         0.0332 
     21 C21       -72.0400  -55.1830  -71.9100 C.ar      1 MOL        -0.1500 
     22 H1        -70.8440  -43.6900  -73.3370 H         1 MOL         0.0000 
     23 H2        -69.8840  -44.2310  -74.7440 H         1 MOL         0.0000 
     24 H3        -69.4820  -44.8300  -73.1010 H         1 MOL         0.0000 
     25 H4        -71.0630  -50.7900  -71.2910 H         1 MOL         0.1500 
     26 H5        -69.8460  -48.6600  -73.3110 H         1 MOL         0.0000 
     27 H6        -68.8580  -47.2070  -73.1490 H         1 MOL         0.0000 
     28 H7        -70.1010  -46.4600  -71.3810 H         1 MOL         0.0000 
     29 H8        -71.1230  -47.9000  -71.4520 H         1 MOL         0.0000 
     30 H9        -72.0150  -45.4130  -74.6140 H         1 MOL         0.4500 
     31 H10       -72.1160  -45.3740  -72.0420 H         1 MOL         0.0000 
     32 H11       -73.8250  -46.4610  -73.4420 H         1 MOL         0.0000 
     33 H12       -73.4740  -47.5090  -72.0880 H         1 MOL         0.0000 
     34 H13       -69.8340  -46.6640  -75.2560 H         1 MOL         0.0000 
     35 H14       -71.1860  -48.7830  -75.4480 H         1 MOL         0.0000 
     36 H15       -72.1250  -47.3790  -75.8880 H         1 MOL         0.0000 
     37 H16       -73.6740  -48.4630  -74.5440 H         1 MOL         0.0000 
     38 H17       -72.7990  -56.9740  -72.8290 H         1 MOL         0.1500 
     39 H18       -73.6420  -53.2930  -74.9380 H         1 MOL         0.1500 
     40 H19       -73.8140  -55.7740  -74.7680 H         1 MOL         0.1500 
     41 H20       -70.7730  -53.1990  -70.4140 H         1 MOL         0.2700 
     42 H21       -71.5810  -55.7080  -71.0730 H         1 MOL         0.1500 
@<TRIPOS>BOND
     1    1    4 1    
     2    5    1 2    
     3   17    1 1    
     4    4    2 2    
     5    9    3 1    
     6    4    6 1    
     7   20    5 1    
     8    6   14 1    
     9    7    8 1    
    10   12    7 1    
    11   10    8 1    
    12   10    9 1    
    13   12    9 1    
    14   11   10 1    
    15   14   11 1    
    16   13   12 1    
    17   14   13 1    
    18   15   19 ar   
    19   21   15 ar   
    20   16   17 ar   
    21   16   20 1    
    22   16   21 ar   
    23   17   18 ar   
    24   18   19 ar   
    25    3   22 1    
    26    3   23 1    
    27    3   24 1    
    28    5   25 1    
    29    7   26 1    
    30    7   27 1    
    31    8   28 1    
    32    8   29 1    
    33    9   30 1    
    34   10   31 1    
    35   11   32 1    
    36   11   33 1    
    37   12   34 1    
    38   13   35 1    
    39   13   36 1    
    40   14   37 1    
    41   15   38 1    
    42   18   39 1    
    43   19   40 1    
    44   20   41 1    
    45   21   42 1    
@<TRIPOS>SUBSTRUCTURE
     1 MOL         1 PERM              0 ****  ****    0 ROOT 
@<TRIPOS>NORMAL
@<TRIPOS>ALT_TYPE
MMFF94_ALT_TYPE_SET 
MMFF94 3 CR 7 CR 8 CR 10 CR 11 CR 12 CR 13 CR 14 CR 5 C5A 16 C5A 1 C5B \
17 C5B 15 CB 18 CB 19 CB 21 CB 4 COO 22 HC 23 HC 24 HC \
25 HC 26 HC 27 HC 28 HC 29 HC 31 HC 32 HC 33 HC 34 HC \
35 HC 36 HC 37 HC 38 HC 39 HC 40 HC 42 HC 41 HPYL 30 HNR+ \
2 O=CO 6 OC=O 20 NPYL 9 NR+ 
