#	Name:			3uew_ligand
#	Creating user name:	suminyi
#	Creation time:		Sun Sep 30 06:48:43 2018

#	Modifying user name:	suminyi
#	Modification time:	Sun Sep 30 06:48:43 2018

@<TRIPOS>MOLECULE
3uew_ligand
   49    48     1     1     0
SMALL
MMFF94_CHARGES


@<TRIPOS>ATOM
      1 C1         -0.8000    1.7730   20.8220 C.2       1 PLM         0.9060 
      2 O1          0.2410    1.6240   21.4990 O.co2     1 PLM        -0.9000 
      3 O2         -1.7190    0.9200   20.7870 O.co2     1 PLM        -0.9000 
      4 C2         -0.9670    3.0420   20.0130 C.3       1 PLM        -0.1060 
      5 C3         -1.3310    4.1730   20.9660 C.3       1 PLM         0.0000 
      6 C4         -2.0470    5.3020   20.2350 C.3       1 PLM         0.0000 
      7 C5         -3.3550    5.6970   20.9160 C.3       1 PLM         0.0000 
      8 C6         -4.1010    6.7160   20.0630 C.3       1 PLM         0.0000 
      9 C7         -3.1910    7.8780   19.6570 C.3       1 PLM         0.0000 
     10 C8         -4.0060    9.1170   19.3150 C.3       1 PLM         0.0000 
     11 C9         -3.1540   10.3760   19.4300 C.3       1 PLM         0.0000 
     12 CA         -3.7930   11.5070   18.6460 C.3       1 PLM         0.0000 
     13 CB         -3.1500   12.8240   18.9990 C.3       1 PLM         0.0000 
     14 CC         -3.9340   13.9420   18.3530 C.3       1 PLM         0.0000 
     15 CD         -3.1490   15.2270   18.4660 C.3       1 PLM         0.0000 
     16 CE         -4.0110   16.4400   18.1550 C.3       1 PLM         0.0000 
     17 CF         -3.6980   17.0690   16.8160 C.3       1 PLM         0.0000 
     18 CG         -4.5000   18.3250   16.5610 C.3       1 PLM         0.0000 
     19 H1         -1.7687    2.9078   19.2719 H         1 PLM         0.0000 
     20 H2         -0.0257    3.2799   19.4959 H         1 PLM         0.0000 
     21 H3         -0.4111    4.5677   21.4220 H         1 PLM         0.0000 
     22 H4         -1.9912    3.7801   21.7533 H         1 PLM         0.0000 
     23 H5         -2.2679    4.9744   19.2084 H         1 PLM         0.0000 
     24 H6         -1.3848    6.1798   20.2053 H         1 PLM         0.0000 
     25 H7         -3.1348    6.1372   21.8997 H         1 PLM         0.0000 
     26 H8         -3.9821    4.8027   21.0465 H         1 PLM         0.0000 
     27 H9         -4.9507    7.1113   20.6390 H         1 PLM         0.0000 
     28 H10        -4.4731    6.2188   19.1551 H         1 PLM         0.0000 
     29 H11        -2.6007    7.5819   18.7773 H         1 PLM         0.0000 
     30 H12        -2.5135    8.1125   20.4912 H         1 PLM         0.0000 
     31 H13        -4.8558    9.1924   20.0094 H         1 PLM         0.0000 
     32 H14        -4.3810    9.0286   18.2847 H         1 PLM         0.0000 
     33 H15        -2.1503   10.1750   19.0272 H         1 PLM         0.0000 
     34 H16        -3.0732   10.6661   20.4880 H         1 PLM         0.0000 
     35 H17        -4.8657   11.5524   18.8853 H         1 PLM         0.0000 
     36 H18        -3.6650   11.3188   17.5698 H         1 PLM         0.0000 
     37 H19        -2.1138   12.8392   18.6303 H         1 PLM         0.0000 
     38 H20        -3.1526   12.9548   20.0912 H         1 PLM         0.0000 
     39 H21        -4.9017   14.0558   18.8634 H         1 PLM         0.0000 
     40 H22        -4.1044   13.7069   17.2920 H         1 PLM         0.0000 
     41 H23        -2.3087   15.1953   17.7569 H         1 PLM         0.0000 
     42 H24        -2.7605   15.3188   19.4910 H         1 PLM         0.0000 
     43 H25        -3.8504   17.1931   18.9405 H         1 PLM         0.0000 
     44 H26        -5.0659   16.1282   18.1561 H         1 PLM         0.0000 
     45 H27        -3.9233   16.3404   16.0234 H         1 PLM         0.0000 
     46 H28        -2.6280   17.3226   16.7876 H         1 PLM         0.0000 
     47 H29        -4.2323   18.7375   15.5770 H         1 PLM         0.0000 
     48 H30        -4.2779   19.0668   17.3423 H         1 PLM         0.0000 
     49 H31        -5.5733   18.0846   16.5781 H         1 PLM         0.0000 
@<TRIPOS>BOND
     1    1    2 ar   
     2    1    3 ar   
     3    1    4 1    
     4    4    5 1    
     5    5    6 1    
     6    6    7 1    
     7    7    8 1    
     8    8    9 1    
     9    9   10 1    
    10   10   11 1    
    11   11   12 1    
    12   12   13 1    
    13   13   14 1    
    14   14   15 1    
    15   15   16 1    
    16   16   17 1    
    17   17   18 1    
    18    4   19 1    
    19    4   20 1    
    20    5   21 1    
    21    5   22 1    
    22    6   23 1    
    23    6   24 1    
    24    7   25 1    
    25    7   26 1    
    26    8   27 1    
    27    8   28 1    
    28    9   29 1    
    29    9   30 1    
    30   10   31 1    
    31   10   32 1    
    32   11   33 1    
    33   11   34 1    
    34   12   35 1    
    35   12   36 1    
    36   13   37 1    
    37   13   38 1    
    38   14   39 1    
    39   14   40 1    
    40   15   41 1    
    41   15   42 1    
    42   16   43 1    
    43   16   44 1    
    44   17   45 1    
    45   17   46 1    
    46   18   47 1    
    47   18   48 1    
    48   18   49 1    
@<TRIPOS>SUBSTRUCTURE
     1 PLM         1 PERM              0 ****  ****    0 ROOT 
@<TRIPOS>NORMAL
@<TRIPOS>ALT_TYPE
MMFF94_ALT_TYPE_SET 
MMFF94 4 CR 5 CR 6 CR 7 CR 8 CR 9 CR 10 CR 11 CR 12 CR 13 CR 14 CR 15 CR \
16 CR 17 CR 18 CR 1 CO2M 19 HC 20 HC 21 HC 22 HC 23 HC \
24 HC 25 HC 26 HC 27 HC 28 HC 29 HC 30 HC 31 HC 32 HC \
33 HC 34 HC 35 HC 36 HC 37 HC 38 HC 39 HC 40 HC 41 HC \
42 HC 43 HC 44 HC 45 HC 46 HC 47 HC 48 HC 49 HC 2 O2CM \
3 O2CM 
