#	Name:			3uew_ligand
#	Creating user name:	suminyi
#	Creation time:		Sun Sep 30 06:50:57 2018

#	Modifying user name:	suminyi
#	Modification time:	Sun Sep 30 06:50:57 2018

@<TRIPOS>MOLECULE
3uew_ligand
   49    48     1     1     0
SMALL
MMFF94_CHARGES


@<TRIPOS>ATOM
      1 C1         -0.3640    2.0740   20.7150 C.2       1 MOL         0.9060 
      2 O1          0.6560    2.6260   21.0710 O.co2     1 MOL        -0.9000 
      3 O2         -0.7320    0.9880   21.0860 O.co2     1 MOL        -0.9000 
      4 C2         -1.2790    2.9340   19.9020 C.3       1 MOL        -0.1060 
      5 C3         -1.9300    3.9770   20.8270 C.3       1 MOL         0.0000 
      6 C4         -2.5760    5.0940   20.0050 C.3       1 MOL         0.0000 
      7 C5         -3.7000    5.7580   20.8160 C.3       1 MOL         0.0000 
      8 C6         -4.3000    6.9410   20.0430 C.3       1 MOL         0.0000 
      9 C7         -3.3890    8.1760   20.1520 C.3       1 MOL         0.0000 
     10 C8         -3.9320    9.3150   19.2870 C.3       1 MOL         0.0000 
     11 C9         -3.2480   10.6460   19.6220 C.3       1 MOL         0.0000 
     12 CA         -3.8730   11.7770   18.7910 C.3       1 MOL         0.0000 
     13 CB         -3.1640   13.1010   19.0890 C.3       1 MOL         0.0000 
     14 CC         -3.8530   14.2730   18.3720 C.3       1 MOL         0.0000 
     15 CD         -3.0680   15.5710   18.6310 C.3       1 MOL         0.0000 
     16 CE         -3.8670   16.8220   18.2210 C.3       1 MOL         0.0000 
     17 CF         -3.8050   17.0820   16.7090 C.3       1 MOL         0.0000 
     18 CG         -4.6220   18.3310   16.3500 C.3       1 MOL         0.0000 
     19 H1         -2.0440    2.3240   19.4160 H         1 MOL         0.0000 
     20 H2         -0.6940    3.4260   19.1210 H         1 MOL         0.0000 
     21 H3         -1.1830    4.4240   21.4900 H         1 MOL         0.0000 
     22 H4         -2.6650    3.4740   21.4600 H         1 MOL         0.0000 
     23 H5         -2.9940    4.6870   19.0810 H         1 MOL         0.0000 
     24 H6         -1.8020    5.8120   19.7260 H         1 MOL         0.0000 
     25 H7         -3.3300    6.0860   21.7920 H         1 MOL         0.0000 
     26 H8         -4.4830    5.0170   20.9990 H         1 MOL         0.0000 
     27 H9         -5.2780    7.1810   20.4640 H         1 MOL         0.0000 
     28 H10        -4.4560    6.6640   18.9970 H         1 MOL         0.0000 
     29 H11        -2.3690    7.9500   19.8330 H         1 MOL         0.0000 
     30 H12        -3.3570    8.4800   21.1960 H         1 MOL         0.0000 
     31 H13        -5.0130    9.4030   19.4180 H         1 MOL         0.0000 
     32 H14        -3.7450    9.0720   18.2470 H         1 MOL         0.0000 
     33 H15        -2.1770   10.5720   19.4170 H         1 MOL         0.0000 
     34 H16        -3.3700   10.8670   20.6850 H         1 MOL         0.0000 
     35 H17        -4.9360   11.8620   19.0280 H         1 MOL         0.0000 
     36 H18        -3.7840   11.5510   17.7270 H         1 MOL         0.0000 
     37 H19        -2.1250   13.0300   18.7760 H         1 MOL         0.0000 
     38 H20        -3.1590   13.2770   20.1650 H         1 MOL         0.0000 
     39 H21        -4.8740   14.3680   18.7480 H         1 MOL         0.0000 
     40 H22        -3.9160   14.0810   17.2990 H         1 MOL         0.0000 
     41 H23        -2.1140   15.5320   18.1040 H         1 MOL         0.0000 
     42 H24        -2.8300   15.6430   19.6910 H         1 MOL         0.0000 
     43 H25        -3.4620   17.6890   18.7480 H         1 MOL         0.0000 
     44 H26        -4.9090   16.7140   18.5250 H         1 MOL         0.0000 
     45 H27        -4.1900   16.2220   16.1570 H         1 MOL         0.0000 
     46 H28        -2.7670   17.2310   16.4190 H         1 MOL         0.0000 
     47 H29        -4.5300   18.5650   15.2880 H         1 MOL         0.0000 
     48 H30        -4.2860   19.1980   16.9250 H         1 MOL         0.0000 
     49 H31        -5.6710   18.1430   16.5730 H         1 MOL         0.0000 
@<TRIPOS>BOND
     1    1    2 ar   
     2    1    3 ar   
     3    1    4 1    
     4    4    5 1    
     5    5    6 1    
     6    6    7 1    
     7    7    8 1    
     8    8    9 1    
     9    9   10 1    
    10   10   11 1    
    11   11   12 1    
    12   12   13 1    
    13   13   14 1    
    14   14   15 1    
    15   15   16 1    
    16   16   17 1    
    17   17   18 1    
    18    4   19 1    
    19    4   20 1    
    20    5   21 1    
    21    5   22 1    
    22    6   23 1    
    23    6   24 1    
    24    7   25 1    
    25    7   26 1    
    26    8   27 1    
    27    8   28 1    
    28    9   29 1    
    29    9   30 1    
    30   10   31 1    
    31   10   32 1    
    32   11   33 1    
    33   11   34 1    
    34   12   35 1    
    35   12   36 1    
    36   13   37 1    
    37   13   38 1    
    38   14   39 1    
    39   14   40 1    
    40   15   41 1    
    41   15   42 1    
    42   16   43 1    
    43   16   44 1    
    44   17   45 1    
    45   17   46 1    
    46   18   47 1    
    47   18   48 1    
    48   18   49 1    
@<TRIPOS>SUBSTRUCTURE
     1 MOL         1 PERM              0 ****  ****    0 ROOT 
@<TRIPOS>NORMAL
@<TRIPOS>ALT_TYPE
MMFF94_ALT_TYPE_SET 
MMFF94 4 CR 5 CR 6 CR 7 CR 8 CR 9 CR 10 CR 11 CR 12 CR 13 CR 14 CR 15 CR \
16 CR 17 CR 18 CR 1 CO2M 19 HC 20 HC 21 HC 22 HC 23 HC \
24 HC 25 HC 26 HC 27 HC 28 HC 29 HC 30 HC 31 HC 32 HC \
33 HC 34 HC 35 HC 36 HC 37 HC 38 HC 39 HC 40 HC 41 HC \
42 HC 43 HC 44 HC 45 HC 46 HC 47 HC 48 HC 49 HC 2 O2CM \
3 O2CM 
