#	Name:			1z6e_ligand
#	Creating user name:	suminyi
#	Creation time:		Sun Sep 30 06:50:57 2018

#	Modifying user name:	suminyi
#	Modification time:	Sun Sep 30 06:50:57 2018

@<TRIPOS>MOLECULE
1z6e_ligand
   59    63     1     1     0
SMALL
MMFF94_CHARGES


@<TRIPOS>ATOM
      1 F           2.7590   28.0420   53.2230 F         1 MOL        -0.3400 
      2 F1          2.7980   26.5280   54.7600 F         1 MOL        -0.3400 
      3 F2          3.5100   26.0570   52.7800 F         1 MOL        -0.3400 
      4 OT1        12.1220   27.9980   52.6000 O.3       1 MOL        -0.0191 
      5 O1          8.3810   29.3240   56.5040 O.2       1 MOL        -0.5700 
      6 N          11.9290   28.8790   51.4940 N.2       1 MOL        -0.4097 
      7 N1          9.9520   29.9630   50.6390 N.pl3     1 MOL        -0.8830 
      8 N2          6.9830   27.7030   54.4440 N.pl3     1 MOL         0.5926 
      9 N3          6.0670   27.0980   53.6440 N.2       1 MOL        -0.7068 
     10 N4          6.4450   30.3440   56.9140 N.am      1 MOL        -0.5470 
     11 C          10.9110   27.7770   53.2070 C.ar      1 MOL         0.1400 
     12 C1          9.9560   28.4700   52.5410 C.ar      1 MOL         0.0000 
     13 C2         10.6090   29.1320   51.4750 C.2       1 MOL         0.3718 
     14 C3         10.6040   27.0100   54.3290 C.ar      1 MOL        -0.1500 
     15 C4          9.2710   26.9890   54.7680 C.ar      1 MOL        -0.1500 
     16 C5          8.2920   27.7300   54.0840 C.ar      1 MOL        -0.0230 
     17 C6          8.6330   28.4660   52.9510 C.ar      1 MOL        -0.1500 
     18 C7          4.8770   27.4870   54.1350 C.2       1 MOL         0.1078 
     19 C8          5.0640   28.4480   55.1750 C.2       1 MOL        -0.1500 
     20 C9          6.4160   28.5800   55.3480 C.2       1 MOL        -0.2366 
     21 C10         3.4910   27.0270   53.7180 C.3       1 MOL         1.2010 
     22 C13         7.1930   29.4100   56.2910 C.2       1 MOL         0.7150 
     23 C14         6.9410   31.3720   57.7830 C.ar      1 MOL         0.1170 
     24 C15         7.5880   31.0660   58.9860 C.ar      1 MOL         0.1900 
     25 C16         8.1100   32.0810   59.7870 C.ar      1 MOL        -0.1500 
     26 C17         7.9660   33.4140   59.4060 C.ar      1 MOL        -0.0230 
     27 C18         7.3240   33.7300   58.2090 C.ar      1 MOL        -0.1500 
     28 C19         6.8130   32.7090   57.4010 C.ar      1 MOL        -0.1500 
     29 N5          8.5090   34.4000   60.1670 N.pl3     1 MOL         0.3262 
     30 C21         9.8350   34.7030   60.1430 C.2       1 MOL        -0.3016 
     31 C22        10.0460   35.5200   61.2180 C.2       1 MOL         0.0772 
     32 N6          8.8740   35.6450   61.9500 N.2       1 MOL        -0.5653 
     33 C25         7.9500   34.9250   61.3000 C.2       1 MOL         0.0065 
     34 F3          7.7010   29.7890   59.3910 F         1 MOL        -0.1900 
     35 C11         6.5120   34.7780   61.7320 C.3       1 MOL         0.6830 
     36 N7          6.2200   34.3380   63.1730 N.4       1 MOL        -0.9590 
     37 C20         6.7910   35.3310   64.1800 C.3       1 MOL         0.5030 
     38 C23         6.8310   32.9790   63.4330 C.3       1 MOL         0.5030 
     39 H1          8.9410   30.0050   50.6850 H         1 MOL         0.4000 
     40 H2         10.3510   30.1620   49.7100 H         1 MOL         0.4000 
     41 H3          5.4970   30.4200   56.6060 H         1 MOL         0.3700 
     42 H4         11.3810   26.4590   54.8540 H         1 MOL         0.1500 
     43 H5          9.0010   26.4160   55.6510 H         1 MOL         0.1500 
     44 H6          7.8780   29.0130   52.4140 H         1 MOL         0.1500 
     45 H7          4.2530   28.9090   55.7300 H         1 MOL         0.1500 
     46 H8          8.6640   31.8270   60.6850 H         1 MOL         0.1500 
     47 H9          7.2600   34.7670   57.8850 H         1 MOL         0.1500 
     48 H10         6.3520   32.9590   56.4500 H         1 MOL         0.1500 
     49 H11        10.5080   34.3430   59.3860 H         1 MOL         0.1500 
     50 H12        10.9540   36.0150   61.5390 H         1 MOL         0.1500 
     51 H13         6.0430   34.0510   61.0650 H         1 MOL         0.0000 
     52 H14         6.0310   35.7470   61.5790 H         1 MOL         0.0000 
     53 H15         5.1920   34.2970   63.3150 H         1 MOL         0.4500 
     54 H16         6.5270   35.0200   65.1960 H         1 MOL         0.0000 
     55 H17         6.3940   36.3300   63.9830 H         1 MOL         0.0000 
     56 H18         7.8810   35.3510   64.0840 H         1 MOL         0.0000 
     57 H19         6.4220   32.2530   62.7250 H         1 MOL         0.0000 
     58 H20         6.6100   32.6790   64.4630 H         1 MOL         0.0000 
     59 H21         7.9160   33.0590   63.3050 H         1 MOL         0.0000 
@<TRIPOS>BOND
     1   21    1 1    
     2   21    2 1    
     3   21    3 1    
     4    6    4 1    
     5   11    4 1    
     6   22    5 2    
     7   13    6 2    
     8   13    7 1    
     9    8    9 1    
    10    8   16 1    
    11   20    8 1    
    12   18    9 2    
    13   22   10 am   
    14   10   23 1    
    15   12   11 ar   
    16   14   11 ar   
    17   12   13 1    
    18   17   12 ar   
    19   15   14 ar   
    20   16   15 ar   
    21   16   17 ar   
    22   19   18 1    
    23   18   21 1    
    24   20   19 2    
    25   20   22 1    
    26   23   24 ar   
    27   23   28 ar   
    28   24   25 ar   
    29   24   34 1    
    30   25   26 ar   
    31   26   27 ar   
    32   26   29 1    
    33   27   28 ar   
    34   29   30 1    
    35   29   33 1    
    36   30   31 2    
    37   31   32 1    
    38   32   33 2    
    39   33   35 1    
    40   35   36 1    
    41   36   37 1    
    42   36   38 1    
    43    7   39 1    
    44    7   40 1    
    45   10   41 1    
    46   14   42 1    
    47   15   43 1    
    48   17   44 1    
    49   19   45 1    
    50   25   46 1    
    51   27   47 1    
    52   28   48 1    
    53   30   49 1    
    54   31   50 1    
    55   35   51 1    
    56   35   52 1    
    57   36   53 1    
    58   37   54 1    
    59   37   55 1    
    60   37   56 1    
    61   38   57 1    
    62   38   58 1    
    63   38   59 1    
@<TRIPOS>SUBSTRUCTURE
     1 MOL         1 PERM              0 ****  ****    0 ROOT 
@<TRIPOS>NORMAL
@<TRIPOS>ALT_TYPE
MMFF94_ALT_TYPE_SET 
MMFF94 21 CR 35 CR 37 CR 38 CR 20 C5A 30 C5A 33 C5A 11 C5A 18 C5B 19 C5B \
31 C5B 13 C5B 12 C5B 14 CB 15 CB 16 CB 17 CB 23 CB 24 CB \
25 CB 26 CB 27 CB 28 CB 22 C=ON 42 HC 43 HC 44 HC 45 HC \
46 HC 47 HC 48 HC 49 HC 50 HC 51 HC 52 HC 54 HC 55 HC \
56 HC 57 HC 58 HC 59 HC 41 HNCC 39 HNCN 40 HNCN 53 HNR+ \
4 OFUR 5 O=CN 8 NPYL 29 NPYL 6 N5A 9 N5A 32 N5B 36 NR+ \
10 NC=O 7 NC=N 1 F 2 F 3 F 34 F 
