#	Name:			3g0w_ligand
#	Creating user name:	suminyi
#	Creation time:		Sun Sep 30 06:49:06 2018

#	Modifying user name:	suminyi
#	Modification time:	Sun Sep 30 06:49:06 2018

@<TRIPOS>MOLECULE
3g0w_ligand
   37    39     1     1     0
SMALL
MMFF94_CHARGES


@<TRIPOS>ATOM
      1 C1         55.1480   -1.1510    3.5980 C.3       1 LGB         0.3691 
      2 N2         55.7450   -0.1600    4.5290 N.pl3     1 LGB        -0.7882 
      3 C3         57.2010   -0.2970    4.4980 C.3       1 LGB         0.3691 
      4 C4         57.5270   -1.0260    3.1770 C.3       1 LGB         0.2800 
      5 C5         56.2840   -1.9610    2.9720 C.3       1 LGB         0.0000 
      6 C6         55.5680    1.2330    4.3680 C.2       1 LGB         0.6500 
      7 O7         56.6750    1.9120    4.6940 O.3       1 LGB        -0.4300 
      8 C8         57.7870    1.0940    4.7280 C.3       1 LGB         0.2800 
      9 N9         54.4330    1.8000    3.9440 N.2       1 LGB        -0.6290 
     10 C10        54.1190    3.1190    3.9100 C.ar      1 LGB         0.1790 
     11 C11        52.7650    3.4810    4.0750 C.ar      1 LGB        -0.1435 
     12 C12        52.4540    4.8370    4.0380 C.ar      1 LGB         0.1770 
     13 C13        53.4380    5.8270    3.8440 C.ar      1 LGB         0.0730 
     14 C14        54.7610    5.4800    3.6840 C.ar      1 LGB        -0.1500 
     15 C15        55.1000    4.1260    3.7180 C.ar      1 LGB        -0.1500 
     16 C16        51.7030    2.4280    4.2830 C.3       1 LGB         0.1435 
     17 CL17       50.8370    5.3070    4.2320 Cl        1 LGB        -0.1770 
     18 O18        58.7040   -1.7810    3.2710 O.3       1 LGB        -0.6800 
     19 C19        53.1470    7.2040    3.8050 C.1       1 LGB         0.4841 
     20 N20        52.7850    8.2870    3.7920 N.1       1 LGB        -0.5571 
     21 C21        58.3190    1.2380    6.1410 C.3       1 LGB         1.0200 
     22 F22        59.3640    0.4310    6.2720 F         1 LGB        -0.3400 
     23 F23        57.4070    0.9410    7.0770 F         1 LGB        -0.3400 
     24 F24        58.6840    2.4840    6.3220 F         1 LGB        -0.3400 
     25 H1         54.5841   -0.6298    2.8104 H         1 LGB         0.0000 
     26 H2         54.4728   -1.8213    4.1501 H         1 LGB         0.0000 
     27 H3         57.5375   -0.9382    5.3260 H         1 LGB         0.0000 
     28 H4         57.6217   -0.3082    2.3489 H         1 LGB         0.0000 
     29 H5         56.0980   -2.1452    1.9036 H         1 LGB         0.0000 
     30 H6         56.4198   -2.9211    3.4914 H         1 LGB         0.0000 
     31 H7         58.5466    1.3533    3.9758 H         1 LGB         0.0000 
     32 H8         55.5203    6.2392    3.5354 H         1 LGB         0.1500 
     33 H9         56.1375    3.8372    3.5948 H         1 LGB         0.1500 
     34 H10        52.1687    1.4315    4.2776 H         1 LGB         0.0000 
     35 H11        50.9612    2.4904    3.4732 H         1 LGB         0.0000 
     36 H12        51.2055    2.5949    5.2497 H         1 LGB         0.0000 
     37 H13        59.4438   -1.1980    3.3946 H         1 LGB         0.4000 
@<TRIPOS>BOND
     1    1    2 1    
     2    1    5 1    
     3    2    3 1    
     4    2    6 1    
     5    3    4 1    
     6    3    8 1    
     7    4    5 1    
     8    4   18 1    
     9    6    7 1    
    10    6    9 2    
    11    7    8 1    
    12    8   21 1    
    13    9   10 1    
    14   10   11 ar   
    15   10   15 ar   
    16   11   12 ar   
    17   11   16 1    
    18   12   13 ar   
    19   12   17 1    
    20   13   14 ar   
    21   13   19 1    
    22   14   15 ar   
    23   19   20 3    
    24   21   22 1    
    25   21   23 1    
    26   21   24 1    
    27    1   25 1    
    28    1   26 1    
    29    3   27 1    
    30    4   28 1    
    31    5   29 1    
    32    5   30 1    
    33    8   31 1    
    34   14   32 1    
    35   15   33 1    
    36   16   34 1    
    37   16   35 1    
    38   16   36 1    
    39   18   37 1    
@<TRIPOS>SUBSTRUCTURE
     1 LGB         1 PERM              0 ****  ****    0 ROOT 
@<TRIPOS>NORMAL
@<TRIPOS>ALT_TYPE
MMFF94_ALT_TYPE_SET 
MMFF94 1 CR 3 CR 4 CR 5 CR 8 CR 16 CR 21 CR 10 CB 11 CB 12 CB 13 CB \
14 CB 15 CB 6 C=N 19 CSP 25 HC 26 HC 27 HC 28 HC 29 HC \
30 HC 31 HC 32 HC 33 HC 34 HC 35 HC 36 HC 37 HOR 7 OC=N \
18 OR 20 NSP 9 N=C 2 NC=N 22 F 23 F 24 F 17 CL 
