#	Name:			3g0w_ligand
#	Creating user name:	suminyi
#	Creation time:		Sun Sep 30 06:50:56 2018

#	Modifying user name:	suminyi
#	Modification time:	Sun Sep 30 06:50:56 2018

@<TRIPOS>MOLECULE
3g0w_ligand
   37    39     1     1     0
SMALL
MMFF94_CHARGES


@<TRIPOS>ATOM
      1 C1         55.2410   -1.1020    3.5380 C.3       1 MOL         0.3691 
      2 N2         55.8700   -0.0770    4.3740 N.pl3     1 MOL        -0.7882 
      3 C3         57.3070   -0.2690    4.3990 C.3       1 MOL         0.3691 
      4 C4         57.6020   -0.9020    3.0330 C.3       1 MOL         0.2800 
      5 C5         56.4080   -1.8450    2.8780 C.3       1 MOL         0.0000 
      6 C6         55.5550    1.2280    4.3370 C.2       1 MOL         0.6500 
      7 O7         56.6330    1.9790    4.6650 O.3       1 MOL        -0.4300 
      8 C8         57.8370    1.1560    4.6410 C.3       1 MOL         0.2800 
      9 N9         54.4720    1.7190    3.8680 N.2       1 MOL        -0.6290 
     10 C10        54.0620    3.0970    3.8940 C.ar      1 MOL         0.1790 
     11 C11        52.7140    3.3940    4.1400 C.ar      1 MOL        -0.1435 
     12 C12        52.3040    4.7290    4.2060 C.ar      1 MOL         0.1770 
     13 C13        53.2350    5.7630    4.0790 C.ar      1 MOL         0.0730 
     14 C14        54.5670    5.4640    3.8000 C.ar      1 MOL        -0.1500 
     15 C15        54.9690    4.1380    3.6730 C.ar      1 MOL        -0.1500 
     16 C16        51.6820    2.2960    4.3760 C.3       1 MOL         0.1435 
     17 Cl17       50.6240    5.0930    4.4520 Cl        1 MOL        -0.1770 
     18 O18        58.8250   -1.6330    3.0490 O.3       1 MOL        -0.6800 
     19 C19        52.8230    7.1270    4.2780 C.1       1 MOL         0.4841 
     20 N20        52.4610    8.1950    4.4660 N.1       1 MOL        -0.5571 
     21 C21        58.5890    1.2630    5.9910 C.3       1 MOL         1.0200 
     22 F22        59.6820    0.4860    6.0290 F         1 MOL        -0.3400 
     23 F23        57.7980    0.8630    7.0050 F         1 MOL        -0.3400 
     24 F24        58.9750    2.5220    6.2450 F         1 MOL        -0.3400 
     25 H1         54.6120   -0.6430    2.7660 H         1 MOL         0.0000 
     26 H2         54.6360   -1.7860    4.1430 H         1 MOL         0.0000 
     27 H3         57.6170   -0.9480    5.1960 H         1 MOL         0.0000 
     28 H4         57.5970   -0.1440    2.2440 H         1 MOL         0.0000 
     29 H5         56.1780   -2.0650    1.8410 H         1 MOL         0.0000 
     30 H6         56.6080   -2.7730    3.4140 H         1 MOL         0.0000 
     31 H7         58.4770    1.4910    3.8250 H         1 MOL         0.0000 
     32 H8         55.3070    6.2570    3.7020 H         1 MOL         0.1500 
     33 H9         56.0080    3.9250    3.4370 H         1 MOL         0.1500 
     34 H10        52.0790    1.2930    4.2230 H         1 MOL         0.0000 
     35 H11        50.8290    2.4070    3.7040 H         1 MOL         0.0000 
     36 H12        51.3210    2.3600    5.4040 H         1 MOL         0.0000 
     37 H13        59.5590   -0.9350    3.0780 H         1 MOL         0.4000 
@<TRIPOS>BOND
     1    1    2 1    
     2    1    5 1    
     3    2    3 1    
     4    2    6 1    
     5    3    4 1    
     6    3    8 1    
     7    4    5 1    
     8    4   18 1    
     9    6    7 1    
    10    6    9 2    
    11    7    8 1    
    12    8   21 1    
    13    9   10 1    
    14   10   11 ar   
    15   10   15 ar   
    16   11   12 ar   
    17   11   16 1    
    18   12   13 ar   
    19   12   17 1    
    20   13   14 ar   
    21   13   19 1    
    22   14   15 ar   
    23   19   20 3    
    24   21   22 1    
    25   21   23 1    
    26   21   24 1    
    27    1   25 1    
    28    1   26 1    
    29    3   27 1    
    30    4   28 1    
    31    5   29 1    
    32    5   30 1    
    33    8   31 1    
    34   14   32 1    
    35   15   33 1    
    36   16   34 1    
    37   16   35 1    
    38   16   36 1    
    39   18   37 1    
@<TRIPOS>SUBSTRUCTURE
     1 MOL         1 PERM              0 ****  ****    0 ROOT 
@<TRIPOS>NORMAL
@<TRIPOS>ALT_TYPE
MMFF94_ALT_TYPE_SET 
MMFF94 1 CR 3 CR 4 CR 5 CR 8 CR 16 CR 21 CR 10 CB 11 CB 12 CB 13 CB \
14 CB 15 CB 6 C=N 19 CSP 25 HC 26 HC 27 HC 28 HC 29 HC \
30 HC 31 HC 32 HC 33 HC 34 HC 35 HC 36 HC 37 HOR 7 OC=N \
18 OR 20 NSP 9 N=C 2 NC=N 22 F 23 F 24 F 17 CL 
