#	Name:			3kwa_ligand
#	Creating user name:	suminyi
#	Creation time:		Sun Sep 30 06:50:52 2018

#	Modifying user name:	suminyi
#	Modification time:	Sun Sep 30 06:50:53 2018

@<TRIPOS>MOLECULE
3kwa_ligand
   44    43     1     1     0
SMALL
MMFF94_CHARGES


@<TRIPOS>ATOM
      1 N1         -6.3340   -0.6050   18.1350 N.4       1 MOL        -0.8530 
      2 C2         -5.6810    0.7380   18.0500 C.3       1 MOL         0.5030 
      3 C3         -6.6490    1.8990   17.8310 C.3       1 MOL         0.0000 
      4 C4         -6.2230    2.8750   16.7250 C.3       1 MOL         0.5030 
      5 N5         -6.0810    2.2280   15.3620 N.4       1 MOL        -0.9060 
      6 C6         -4.6490    1.9200   14.9460 C.3       1 MOL         0.5030 
      7 C7         -4.4470    1.3610   13.5110 C.3       1 MOL         0.0000 
      8 C8         -4.8540    2.2340   12.2910 C.3       1 MOL         0.0000 
      9 C9         -4.9000    3.7670   12.4770 C.3       1 MOL         0.5030 
     10 N10        -3.6150    4.4520   12.8480 N.4       1 MOL        -0.9060 
     11 C11        -3.8690    5.8900   13.2610 C.3       1 MOL         0.5030 
     12 C12        -2.8460    6.3970   14.2930 C.3       1 MOL         0.0000 
     13 C13        -1.3860    5.9970   13.9910 C.3       1 MOL         0.5030 
     14 N14        -0.9360    4.6230   14.5110 N.4       1 MOL        -0.8530 
     15 H1         -5.6320   -1.3860   18.2120 H         1 MOL         0.4500 
     16 H2         -6.9450   -0.9370   17.3600 H         1 MOL         0.4500 
     17 H3         -6.9510   -0.7510   18.9630 H         1 MOL         0.4500 
     18 H4         -4.9320    0.6770   17.2570 H         1 MOL         0.0000 
     19 H5         -5.1670    0.8870   19.0100 H         1 MOL         0.0000 
     20 H6         -6.6750    2.4570   18.7710 H         1 MOL         0.0000 
     21 H7         -7.6620    1.5310   17.6340 H         1 MOL         0.0000 
     22 H8         -5.2790    3.3530   16.9880 H         1 MOL         0.0000 
     23 H9         -6.9860    3.6650   16.6560 H         1 MOL         0.0000 
     24 H10        -6.5770    2.8220   14.6600 H         1 MOL         0.4500 
     25 H11        -6.6550    1.3530   15.3650 H         1 MOL         0.4500 
     26 H12        -4.2540    1.1720   15.6470 H         1 MOL         0.0000 
     27 H13        -4.0600    2.8300   15.0830 H         1 MOL         0.0000 
     28 H14        -4.9360    0.3900   13.4220 H         1 MOL         0.0000 
     29 H15        -3.4050    1.0990   13.3770 H         1 MOL         0.0000 
     30 H16        -5.8370    1.8980   11.9530 H         1 MOL         0.0000 
     31 H17        -4.1940    1.9950   11.4520 H         1 MOL         0.0000 
     32 H18        -5.6620    4.0330   13.2190 H         1 MOL         0.0000 
     33 H19        -5.2130    4.2160   11.5220 H         1 MOL         0.0000 
     34 H20        -2.9830    4.4450   12.0160 H         1 MOL         0.4500 
     35 H21        -3.1370    3.9580   13.6110 H         1 MOL         0.4500 
     36 H22        -4.8760    5.9700   13.6920 H         1 MOL         0.0000 
     37 H23        -3.8610    6.5220   12.3600 H         1 MOL         0.0000 
     38 H24        -3.1280    6.0790   15.2980 H         1 MOL         0.0000 
     39 H25        -2.9090    7.4930   14.3070 H         1 MOL         0.0000 
     40 H26        -0.7380    6.7490   14.4660 H         1 MOL         0.0000 
     41 H27        -1.1750    6.0710   12.9140 H         1 MOL         0.0000 
     42 H28         0.1200    4.6490   14.4720 H         1 MOL         0.4500 
     43 H29        -0.9840    3.7670   13.9330 H         1 MOL         0.4500 
     44 H30        -1.0350    4.3880   15.5190 H         1 MOL         0.4500 
@<TRIPOS>BOND
     1    1    2 1    
     2    2    3 1    
     3    3    4 1    
     4    4    5 1    
     5    5    6 1    
     6    6    7 1    
     7    7    8 1    
     8    8    9 1    
     9    9   10 1    
    10   10   11 1    
    11   11   12 1    
    12   12   13 1    
    13   13   14 1    
    14    1   15 1    
    15    1   16 1    
    16    1   17 1    
    17    2   18 1    
    18    2   19 1    
    19    3   20 1    
    20    3   21 1    
    21    4   22 1    
    22    4   23 1    
    23    5   24 1    
    24    5   25 1    
    25    6   26 1    
    26    6   27 1    
    27    7   28 1    
    28    7   29 1    
    29    8   30 1    
    30    8   31 1    
    31    9   32 1    
    32    9   33 1    
    33   10   34 1    
    34   10   35 1    
    35   11   36 1    
    36   11   37 1    
    37   12   38 1    
    38   12   39 1    
    39   13   40 1    
    40   13   41 1    
    41   14   42 1    
    42   14   43 1    
    43   14   44 1    
@<TRIPOS>SUBSTRUCTURE
     1 MOL         1 PERM              0 ****  ****    0 ROOT 
@<TRIPOS>NORMAL
@<TRIPOS>ALT_TYPE
MMFF94_ALT_TYPE_SET 
MMFF94 2 CR 3 CR 4 CR 6 CR 7 CR 8 CR 9 CR 11 CR 12 CR 13 CR 18 HC 19 HC \
20 HC 21 HC 22 HC 23 HC 26 HC 27 HC 28 HC 29 HC 30 HC \
31 HC 32 HC 33 HC 36 HC 37 HC 38 HC 39 HC 40 HC 41 HC \
15 HNR+ 16 HNR+ 17 HNR+ 24 HNR+ 25 HNR+ 34 HNR+ 35 HNR+ \
42 HNR+ 43 HNR+ 44 HNR+ 1 NR+ 5 NR+ 10 NR+ 14 NR+ 
