#	Name:			3ueu_ligand
#	Creating user name:	suminyi
#	Creation time:		Sun Sep 30 06:50:59 2018

#	Modifying user name:	suminyi
#	Modification time:	Sun Sep 30 06:50:59 2018

@<TRIPOS>MOLECULE
3ueu_ligand
   37    36     1     1     0
SMALL
MMFF94_CHARGES


@<TRIPOS>ATOM
      1 O1         -1.1000    3.8510   19.6150 O.co2     1 MOL        -0.9000 
      2 O2          0.3090    5.3450   19.0430 O.co2     1 MOL        -0.9000 
      3 C1         -0.8360    4.9530   19.1850 C.2       1 MOL         0.9060 
      4 C2         -1.9810    5.8600   18.7600 C.3       1 MOL        -0.1060 
      5 C3         -1.9210    7.2530   19.4320 C.3       1 MOL         0.0000 
      6 C4         -2.8370    8.2860   18.7310 C.3       1 MOL         0.0000 
      7 C5         -2.4360    9.7210   19.1310 C.3       1 MOL         0.0000 
      8 C6         -3.1910   10.8300   18.3650 C.3       1 MOL         0.0000 
      9 C7         -2.4970   12.1750   18.6600 C.3       1 MOL         0.0000 
     10 C8         -3.1190   13.3970   17.9510 C.3       1 MOL         0.0000 
     11 C9         -2.1770   14.6100   18.1460 C.3       1 MOL         0.0000 
     12 C10        -2.8610   15.9720   17.9250 C.3       1 MOL         0.0000 
     13 C11        -3.1520   16.2820   16.4500 C.3       1 MOL         0.0000 
     14 C12        -3.8100   17.6680   16.3150 C.3       1 MOL         0.0000 
     15 H1         -2.9370    5.3860   18.9960 H         1 MOL         0.0000 
     16 H2         -1.9310    5.9670   17.6750 H         1 MOL         0.0000 
     17 H3         -0.8900    7.6080   19.3980 H         1 MOL         0.0000 
     18 H4         -2.1940    7.1650   20.4870 H         1 MOL         0.0000 
     19 H5         -3.8770    8.0960   18.9980 H         1 MOL         0.0000 
     20 H6         -2.7440    8.1800   17.6490 H         1 MOL         0.0000 
     21 H7         -1.3660    9.8370   18.9420 H         1 MOL         0.0000 
     22 H8         -2.5980    9.8610   20.2010 H         1 MOL         0.0000 
     23 H9         -4.2390   10.8580   18.6770 H         1 MOL         0.0000 
     24 H10        -3.1580   10.6310   17.2940 H         1 MOL         0.0000 
     25 H11        -1.4540   12.0910   18.3570 H         1 MOL         0.0000 
     26 H12        -2.4970   12.3490   19.7380 H         1 MOL         0.0000 
     27 H13        -4.1020   13.6000   18.3770 H         1 MOL         0.0000 
     28 H14        -3.2670   13.2030   16.8880 H         1 MOL         0.0000 
     29 H15        -1.3070   14.5140   17.4920 H         1 MOL         0.0000 
     30 H16        -1.8020   14.5990   19.1710 H         1 MOL         0.0000 
     31 H17        -2.2160   16.7550   18.3300 H         1 MOL         0.0000 
     32 H18        -3.7960   15.9970   18.4800 H         1 MOL         0.0000 
     33 H19        -3.8130   15.5230   16.0290 H         1 MOL         0.0000 
     34 H20        -2.2160   16.2570   15.8910 H         1 MOL         0.0000 
     35 H21        -4.0710   17.8720   15.2740 H         1 MOL         0.0000 
     36 H22        -3.1330   18.4530   16.6600 H         1 MOL         0.0000 
     37 H23        -4.7230   17.7140   16.9140 H         1 MOL         0.0000 
@<TRIPOS>BOND
     1    1    3 ar   
     2    3    2 ar   
     3    3    4 1    
     4    4    5 1    
     5    5    6 1    
     6    6    7 1    
     7    7    8 1    
     8    8    9 1    
     9    9   10 1    
    10   10   11 1    
    11   11   12 1    
    12   12   13 1    
    13   13   14 1    
    14    4   15 1    
    15    4   16 1    
    16    5   17 1    
    17    5   18 1    
    18    6   19 1    
    19    6   20 1    
    20    7   21 1    
    21    7   22 1    
    22    8   23 1    
    23    8   24 1    
    24    9   25 1    
    25    9   26 1    
    26   10   27 1    
    27   10   28 1    
    28   11   29 1    
    29   11   30 1    
    30   12   31 1    
    31   12   32 1    
    32   13   33 1    
    33   13   34 1    
    34   14   35 1    
    35   14   36 1    
    36   14   37 1    
@<TRIPOS>SUBSTRUCTURE
     1 MOL         1 PERM              0 ****  ****    0 ROOT 
@<TRIPOS>NORMAL
@<TRIPOS>ALT_TYPE
MMFF94_ALT_TYPE_SET 
MMFF94 4 CR 5 CR 6 CR 7 CR 8 CR 9 CR 10 CR 11 CR 12 CR 13 CR 14 CR 3 CO2M \
15 HC 16 HC 17 HC 18 HC 19 HC 20 HC 21 HC 22 HC 23 HC \
24 HC 25 HC 26 HC 27 HC 28 HC 29 HC 30 HC 31 HC 32 HC \
33 HC 34 HC 35 HC 36 HC 37 HC 1 O2CM 2 O2CM 
