#	Name:			2fxs_ligand
#	Creating user name:	suminyi
#	Creation time:		Sun Sep 30 06:51:01 2018

#	Modifying user name:	suminyi
#	Modification time:	Sun Sep 30 06:51:01 2018

@<TRIPOS>MOLECULE
2fxs_ligand
   46    47     1     1     0
SMALL
MMFF94_CHARGES


@<TRIPOS>ATOM
      1 C7         19.6020   36.0910    7.8580 C.3       1 MOL         0.2800 
      2 O4         19.5480   35.3910    6.5860 O.3       1 MOL        -0.4300 
      3 C6         18.3690   34.8120    6.2580 C.2       1 MOL         0.6338 
      4 O3         17.4020   34.9840    6.9810 O.2       1 MOL        -0.5700 
      5 C5         18.2960   33.9250    5.0310 C.ar      1 MOL         0.0862 
      6 C4         17.2180   33.0340    4.9440 C.ar      1 MOL         0.0825 
      7 O2         16.2360   33.0300    5.8660 O.3       1 MOL        -0.5325 
      8 C3         17.1210   32.0910    3.9380 C.ar      1 MOL        -0.1500 
      9 C2         18.0810   32.0370    2.9510 C.ar      1 MOL         0.0825 
     10 O1         17.9940   31.0930    1.9790 O.3       1 MOL        -0.5325 
     11 C1         19.1140   32.9680    2.9410 C.ar      1 MOL         0.1770 
     12 Cl         20.2370   32.9190    1.6170 Cl        1 MOL        -0.1770 
     13 C8         19.2380   33.9140    3.9750 C.ar      1 MOL        -0.1435 
     14 C9         20.3530   34.9480    3.8560 C.3       1 MOL         0.1435 
     15 C10        21.6840   34.4150    4.4160 C.3       1 MOL         0.0610 
     16 C11        22.7210   35.5010    4.3870 C.2       1 MOL         0.5690 
     17 O5         23.1000   35.9960    3.3470 O.2       1 MOL        -0.5700 
     18 N1         23.1740   35.8780    5.5960 N.am      1 MOL        -0.5470 
     19 C12        24.1570   36.8520    5.9500 C.ar      1 MOL         0.1170 
     20 C18        25.1420   37.2690    5.0510 C.ar      1 MOL        -0.1500 
     21 C17        26.0740   38.2260    5.4320 C.ar      1 MOL         0.0825 
     22 O8         27.0040   38.6710    4.5460 O.3       1 MOL        -0.5325 
     23 C15        26.0530   38.7500    6.7250 C.ar      1 MOL         0.0825 
     24 O7         26.9910   39.6930    7.0910 O.3       1 MOL        -0.3625 
     25 C16        26.5460   41.0260    7.4270 C.3       1 MOL         0.2800 
     26 C14        25.0850   38.3250    7.6340 C.ar      1 MOL        -0.1500 
     27 C13        24.1370   37.3810    7.2470 C.ar      1 MOL         0.0825 
     28 O6         23.1440   37.0490    8.1250 O.3       1 MOL        -0.5325 
     29 H1         20.6060   36.4830    8.0110 H         1 MOL         0.0000 
     30 H2         19.3550   35.3900    8.6620 H         1 MOL         0.0000 
     31 H3         18.8800   36.9140    7.8660 H         1 MOL         0.0000 
     32 H4         16.4890   33.6250    6.6060 H         1 MOL         0.4500 
     33 H5         16.2910   31.3860    3.9430 H         1 MOL         0.1500 
     34 H6         18.6460   31.3280    1.3020 H         1 MOL         0.4500 
     35 H7         20.0810   35.8790    4.3470 H         1 MOL         0.0000 
     36 H8         20.4900   35.2450    2.8150 H         1 MOL         0.0000 
     37 H9         22.0430   33.5770    3.8160 H         1 MOL         0.0000 
     38 H10        21.5390   34.0360    5.4300 H         1 MOL         0.0000 
     39 H13        27.4080   41.6350    7.7120 H         1 MOL         0.0000 
     40 H14        25.8290   40.9900    8.2510 H         1 MOL         0.0000 
     41 H15        26.0660   41.4570    6.5500 H         1 MOL         0.0000 
     42 H11        22.7580   35.4120    6.3780 H         1 MOL         0.3700 
     43 H12        25.1850   36.8590    4.0490 H         1 MOL         0.1500 
     44 H16        27.5310   39.3090    5.0830 H         1 MOL         0.4500 
     45 H17        25.0640   38.7470    8.6340 H         1 MOL         0.1500 
     46 H18        22.4650   37.7520    8.0250 H         1 MOL         0.4500 
@<TRIPOS>BOND
     1    1    2 1    
     2    2    3 1    
     3    3    4 2    
     4    3    5 1    
     5    5    6 ar   
     6    5   13 ar   
     7    6    7 1    
     8    6    8 ar   
     9    8    9 ar   
    10    9   10 1    
    11    9   11 ar   
    12   11   12 1    
    13   11   13 ar   
    14   13   14 1    
    15   14   15 1    
    16   15   16 1    
    17   16   17 2    
    18   16   18 am   
    19   18   19 1    
    20   19   20 ar   
    21   19   27 ar   
    22   20   21 ar   
    23   21   22 1    
    24   21   23 ar   
    25   23   24 1    
    26   23   26 ar   
    27   24   25 1    
    28   26   27 ar   
    29   27   28 1    
    30    1   29 1    
    31    1   30 1    
    32    1   31 1    
    33    7   32 1    
    34    8   33 1    
    35   10   34 1    
    36   14   35 1    
    37   14   36 1    
    38   15   37 1    
    39   15   38 1    
    40   25   39 1    
    41   25   40 1    
    42   25   41 1    
    43   18   42 1    
    44   20   43 1    
    45   22   44 1    
    46   26   45 1    
    47   28   46 1    
@<TRIPOS>SUBSTRUCTURE
     1 MOL         1 PERM              0 ****  ****    0 ROOT 
@<TRIPOS>NORMAL
@<TRIPOS>ALT_TYPE
MMFF94_ALT_TYPE_SET 
MMFF94 1 CR 14 CR 15 CR 25 CR 5 CB 6 CB 8 CB 9 CB 11 CB 13 CB 19 CB \
20 CB 21 CB 23 CB 26 CB 27 CB 3 COO 16 C=ON 29 HC 30 HC \
31 HC 33 HC 35 HC 36 HC 37 HC 38 HC 43 HC 39 HC 40 HC \
41 HC 45 HC 42 HNCC 32 HOCC 34 HOCC 44 HOCC 46 HOCC 17 O=CN \
4 O=CO 2 OC=O 7 OC=C 10 OC=C 22 OC=C 24 OC=C 28 OC=C \
18 NC=O 12 CL 
