#	Name:			2fxs_ligand
#	Creating user name:	suminyi
#	Creation time:		Sun Sep 30 06:48:43 2018

#	Modifying user name:	suminyi
#	Modification time:	Sun Sep 30 06:48:43 2018

@<TRIPOS>MOLECULE
2fxs_ligand
   46    47     1     1     1
SMALL
MMFF94_CHARGES


@<TRIPOS>ATOM
      1 C7         19.4390   35.7150    7.9830 C.3       1 RDA         0.2800 
      2 O4         19.5700   34.8980    6.8150 O.3       1 RDA        -0.4300 
      3 C6         18.3630   34.6030    6.2580 C.2       1 RDA         0.6338 
      4 O3         17.3240   35.0640    6.7280 O.2       1 RDA        -0.5700 
      5 C5         18.3240   33.7300    5.0000 C.ar      1 RDA         0.0862 
      6 C4         17.3560   32.7330    4.9060 C.ar      1 RDA         0.0825 
      7 O2         16.4430   32.5690    5.9000 O.3       1 RDA        -0.5325 
      8 C3         17.3310   31.8790    3.8090 C.ar      1 RDA        -0.1500 
      9 C2         18.2870   32.0340    2.8100 C.ar      1 RDA         0.0825 
     10 O1         18.2990   31.1870    1.7460 O.3       1 RDA        -0.5325 
     11 C1         19.2470   33.0350    2.9110 C.ar      1 RDA         0.1770 
     12 CL         20.3870   33.2070    1.6210 Cl        1 RDA        -0.1770 
     13 C8         19.2860   33.9000    4.0050 C.ar      1 RDA        -0.1435 
     14 C9         20.3420   35.0080    4.0990 C.3       1 RDA         0.1435 
     15 C10        21.6830   34.4570    4.5910 C.3       1 RDA         0.0610 
     16 C11        22.7690   35.5340    4.6240 C.2       1 RDA         0.5690 
     17 O5         23.2910   35.9330    3.5840 O.2       1 RDA        -0.5700 
     18 N1         23.0650   35.9930    5.8390 N.am      1 RDA        -0.5470 
     19 C12        23.9910   36.9160    6.0970 C.ar      1 RDA         0.1170 
     20 C18        24.8080   37.4450    5.1010 C.ar      1 RDA        -0.1500 
     21 C17        25.8140   38.3530    5.4210 C.ar      1 RDA         0.0825 
     22 O8         26.5400   38.8020    4.5330 O.3       1 RDA        -0.5325 
     23 C15        26.0100   38.7420    6.7430 C.ar      1 RDA         0.0825 
     24 O7         27.0150   39.5990    7.0650 O.3       1 RDA        -0.3625 
     25 C16        26.5750   40.9610    7.0320 C.3       1 RDA         0.2800 
     26 C14        25.1900   38.2190    7.7410 C.ar      1 RDA        -0.1500 
     27 C13        24.1860   37.3120    7.4180 C.ar      1 RDA         0.0825 
     28 O6         23.4610   36.8620    8.3050 O.3       1 RDA        -0.5325 
     29 H1         20.4362   35.9263    8.3963 H         1 RDA         0.0000 
     30 H2         18.8351   35.1858    8.7348 H         1 RDA         0.0000 
     31 H3         18.9451   36.6607    7.7155 H         1 RDA         0.0000 
     32 H4         15.9387   33.3678    6.0002 H         1 RDA         0.4500 
     33 H5         16.5774   31.1035    3.7332 H         1 RDA         0.1500 
     34 H6         19.0074   31.4264    1.1600 H         1 RDA         0.4500 
     35 H7         19.9916   35.7785    4.8015 H         1 RDA         0.0000 
     36 H8         20.4817   35.4554    3.1039 H         1 RDA         0.0000 
     37 H9         22.0041   33.6498    3.9163 H         1 RDA         0.0000 
     38 H10        21.5506   34.0553    5.6064 H         1 RDA         0.0000 
     39 H13        27.4123   41.6233    7.2971 H         1 RDA         0.0000 
     40 H14        25.7558   41.0993    7.7529 H         1 RDA         0.0000 
     41 H15        26.2190   41.2069    6.0207 H         1 RDA         0.0000 
     42 H11        22.5555   35.6179    6.6134 H         1 RDA         0.3700 
     43 H12        24.6597   37.1478    4.0691 H         1 RDA         0.1500 
     44 H16        26.2763   38.4400    3.6952 H         1 RDA         0.4500 
     45 H17        25.3350   38.5199    8.7723 H         1 RDA         0.1500 
     46 H18        22.8314   36.2607    7.9247 H         1 RDA         0.4500 
@<TRIPOS>BOND
     1    1    2 1    
     2    2    3 1    
     3    3    4 2    
     4    3    5 1    
     5    5    6 ar   
     6    5   13 ar   
     7    6    7 1    
     8    6    8 ar   
     9    8    9 ar   
    10    9   10 1    
    11    9   11 ar   
    12   11   12 1    
    13   11   13 ar   
    14   13   14 1    
    15   14   15 1    
    16   15   16 1    
    17   16   17 2    
    18   16   18 am   
    19   18   19 1    
    20   19   20 ar   
    21   19   27 ar   
    22   20   21 ar   
    23   21   22 1    
    24   21   23 ar   
    25   23   24 1    
    26   23   26 ar   
    27   24   25 1    
    28   26   27 ar   
    29   27   28 1    
    30    1   29 1    
    31    1   30 1    
    32    1   31 1    
    33    7   32 1    
    34    8   33 1    
    35   10   34 1    
    36   14   35 1    
    37   14   36 1    
    38   15   37 1    
    39   15   38 1    
    40   25   39 1    
    41   25   40 1    
    42   25   41 1    
    43   18   42 1    
    44   20   43 1    
    45   22   44 1    
    46   26   45 1    
    47   28   46 1    
@<TRIPOS>SUBSTRUCTURE
     1 RDA         1 PERM              0 ****  ****    0 ROOT 
@<TRIPOS>SET
ATOM$INVISIBLE  STATIC     ATOMS    DISPGROUP SYSTEM 
13 29 30 31 32 33 34 35 36 37 38 39 40 41
@<TRIPOS>NORMAL
@<TRIPOS>ALT_TYPE
MMFF94_ALT_TYPE_SET 
MMFF94 1 CR 14 CR 15 CR 25 CR 5 CB 6 CB 8 CB 9 CB 11 CB 13 CB 19 CB \
20 CB 21 CB 23 CB 26 CB 27 CB 3 COO 16 C=ON 29 HC 30 HC \
31 HC 33 HC 35 HC 36 HC 37 HC 38 HC 43 HC 39 HC 40 HC \
41 HC 45 HC 42 HNCC 32 HOCC 34 HOCC 44 HOCC 46 HOCC 17 O=CN \
4 O=CO 2 OC=O 7 OC=C 10 OC=C 22 OC=C 24 OC=C 28 OC=C \
18 NC=O 12 CL 
