#	Name:			4qac_ligand
#	Creating user name:	suminyi
#	Creation time:		Sun Sep 30 06:51:02 2018

#	Modifying user name:	suminyi
#	Modification time:	Sun Sep 30 06:51:03 2018

@<TRIPOS>MOLECULE
4qac_ligand
   43    45     1     1     0
SMALL
MMFF94_CHARGES


@<TRIPOS>ATOM
      1 C1        -46.7400  -47.2060   28.3950 C.3       1 MOL         0.3691 
      2 C3        -45.2860  -47.2850   28.9170 C.3       1 MOL         0.0000 
      3 C7        -45.1510  -46.8340   30.3990 C.3       1 MOL         0.0000 
      4 C8        -44.9780  -45.3030   30.5060 C.3       1 MOL         0.0000 
      5 C9        -46.3450  -47.3190   31.2730 C.3       1 MOL         0.0000 
      6 C10       -47.1630  -48.4130   30.5590 C.3       1 MOL         0.3691 
      7 N2        -47.7070  -47.8300   29.3200 N.pl3     1 MOL        -0.8382 
      8 C4        -49.0390  -47.5820   29.1400 C.ar      1 MOL         0.4100 
      9 C5        -49.9060  -47.4790   30.2110 C.ar      1 MOL        -0.1500 
     10 N3        -49.4100  -47.3870   27.8740 N.ar      1 MOL        -0.6200 
     11 C2        -50.6720  -47.0680   27.7470 C.ar      1 MOL         0.7200 
     12 N4        -51.0920  -46.8960   26.5260 N.pl3     1 MOL        -0.9000 
     13 N1        -51.6050  -46.9730   28.6560 N.ar      1 MOL        -0.6200 
     14 C6        -51.2250  -47.1800   29.9150 C.ar      1 MOL         0.3100 
     15 C11       -52.2470  -46.9880   30.9980 C.ar      1 MOL         0.0000 
     16 C12       -52.8860  -48.0590   31.6410 C.ar      1 MOL        -0.1500 
     17 C13       -53.9010  -47.8180   32.5720 C.ar      1 MOL        -0.1500 
     18 C14       -54.2900  -46.5110   32.8920 C.ar      1 MOL        -0.1435 
     19 C15       -55.4640  -46.2050   33.8190 C.3       1 MOL         1.1635 
     20 F1        -55.1050  -45.4750   34.8840 F         1 MOL        -0.3400 
     21 F2        -56.0850  -47.3000   34.2890 F         1 MOL        -0.3400 
     22 F3        -56.3980  -45.4700   33.1970 F         1 MOL        -0.3400 
     23 C16       -53.6310  -45.4500   32.2750 C.ar      1 MOL        -0.1500 
     24 C17       -52.6310  -45.6900   31.3410 C.ar      1 MOL        -0.1500 
     25 H         -46.7990  -47.6930   27.4170 H         1 MOL         0.0000 
     26 H1        -47.0060  -46.1540   28.2590 H         1 MOL         0.0000 
     27 H2        -44.6290  -46.6970   28.2750 H         1 MOL         0.0000 
     28 H3        -44.9520  -48.3220   28.8340 H         1 MOL         0.0000 
     29 H4        -44.2420  -47.2930   30.7910 H         1 MOL         0.0000 
     30 H5        -44.9500  -44.9920   31.5530 H         1 MOL         0.0000 
     31 H6        -45.8010  -44.7830   30.0130 H         1 MOL         0.0000 
     32 H7        -44.0430  -44.9900   30.0340 H         1 MOL         0.0000 
     33 H8        -47.0190  -46.4880   31.5010 H         1 MOL         0.0000 
     34 H9        -45.9770  -47.6970   32.2280 H         1 MOL         0.0000 
     35 H10       -47.9400  -48.7970   31.2230 H         1 MOL         0.0000 
     36 H11       -46.5140  -49.2580   30.3140 H         1 MOL         0.0000 
     37 H12       -49.5810  -47.5680   31.2360 H         1 MOL         0.1500 
     38 H13       -50.6860  -47.6070   25.9460 H         1 MOL         0.4000 
     39 H14       -52.0980  -46.7560   26.4870 H         1 MOL         0.4000 
     40 H15       -52.6370  -49.0790   31.3660 H         1 MOL         0.1500 
     41 H16       -54.4190  -48.6680   33.0120 H         1 MOL         0.1500 
     42 H17       -53.9350  -44.4250   32.4680 H         1 MOL         0.1500 
     43 H18       -52.2010  -44.8680   30.7940 H         1 MOL         0.1500 
@<TRIPOS>BOND
     1    1    2 1    
     2    1    7 1    
     3    2    3 1    
     4    3    4 1    
     5    3    5 1    
     6    5    6 1    
     7    6    7 1    
     8    7    8 1    
     9    8    9 ar   
    10    8   10 ar   
    11    9   14 ar   
    12   10   11 ar   
    13   11   12 1    
    14   11   13 ar   
    15   13   14 ar   
    16   14   15 1    
    17   15   16 ar   
    18   15   24 ar   
    19   16   17 ar   
    20   17   18 ar   
    21   18   19 1    
    22   18   23 ar   
    23   19   20 1    
    24   19   21 1    
    25   19   22 1    
    26   23   24 ar   
    27    1   25 1    
    28    1   26 1    
    29    2   27 1    
    30    2   28 1    
    31    3   29 1    
    32    4   30 1    
    33    4   31 1    
    34    4   32 1    
    35    5   33 1    
    36    5   34 1    
    37    6   35 1    
    38    6   36 1    
    39    9   37 1    
    40   12   38 1    
    41   12   39 1    
    42   16   40 1    
    43   17   41 1    
    44   23   42 1    
    45   24   43 1    
@<TRIPOS>SUBSTRUCTURE
     1 MOL         1 PERM              0 ****  ****    0 ROOT 
@<TRIPOS>NORMAL
@<TRIPOS>ALT_TYPE
MMFF94_ALT_TYPE_SET 
MMFF94 1 CR 2 CR 3 CR 4 CR 5 CR 6 CR 19 CR 8 CB 9 CB 11 CB 14 CB 15 CB \
16 CB 17 CB 18 CB 23 CB 24 CB 25 HC 26 HC 27 HC 28 HC \
29 HC 30 HC 31 HC 32 HC 33 HC 34 HC 35 HC 36 HC 37 HC \
40 HC 41 HC 42 HC 43 HC 38 HNCN 39 HNCN 10 NPYD 13 NPYD \
7 NC=N 12 NC=N 20 F 21 F 22 F 
