#	Name:			4qac_ligand
#	Creating user name:	suminyi
#	Creation time:		Sun Sep 30 06:48:42 2018

#	Modifying user name:	suminyi
#	Modification time:	Sun Sep 30 06:48:42 2018

@<TRIPOS>MOLECULE
4qac_ligand
   43    45     1     1     0
SMALL
MMFF94_CHARGES


@<TRIPOS>ATOM
      1 C1        -46.7210  -46.9650   28.6010 C.3       1 KK3         0.3691 
      2 C3        -45.2960  -47.1150   29.1230 C.3       1 KK3         0.0000 
      3 C7        -45.1710  -46.8060   30.6290 C.3       1 KK3         0.0000 
      4 C8        -44.8300  -45.3370   30.8470 C.3       1 KK3         0.0000 
      5 C9        -46.4790  -47.1720   31.3350 C.3       1 KK3         0.0000 
      6 C10       -47.2000  -48.3100   30.6380 C.3       1 KK3         0.3691 
      7 N2        -47.6880  -47.8660   29.3220 N.pl3     1 KK3        -0.8382 
      8 C4        -49.0610  -47.5430   29.2790 C.ar      1 KK3         0.4100 
      9 C5        -49.9510  -47.3770   30.3860 C.ar      1 KK3        -0.1500 
     10 N3        -49.4760  -47.3410   27.9920 N.ar      1 KK3        -0.6200 
     11 C2        -50.8140  -47.0000   27.8390 C.ar      1 KK3         0.7200 
     12 N4        -51.2650  -46.8030   26.5340 N.pl3     1 KK3        -0.9000 
     13 N1        -51.7220  -46.8280   28.8190 N.ar      1 KK3        -0.6200 
     14 C6        -51.2930  -47.0190   30.0880 C.ar      1 KK3         0.3100 
     15 C11       -52.3670  -46.8140   31.1140 C.ar      1 KK3         0.0000 
     16 C12       -53.2160  -47.8800   31.4750 C.ar      1 KK3        -0.1500 
     17 C13       -54.2720  -47.6970   32.3920 C.ar      1 KK3        -0.1500 
     18 C14       -54.4930  -46.4360   32.9470 C.ar      1 KK3        -0.1435 
     19 C15       -55.6360  -46.1970   33.9310 C.3       1 KK3         1.1635 
     20 F1        -55.3340  -45.4650   35.0250 F         1 KK3        -0.3400 
     21 F2        -56.2490  -47.3250   34.3860 F         1 KK3        -0.3400 
     22 F3        -56.6180  -45.4810   33.3520 F         1 KK3        -0.3400 
     23 C16       -53.6870  -45.3670   32.5840 C.ar      1 KK3        -0.1500 
     24 C17       -52.6430  -45.5490   31.6700 C.ar      1 KK3        -0.1500 
     25 H         -46.7343  -47.2157   27.5300 H         1 KK3         0.0000 
     26 H         -47.0403  -45.9212   28.7373 H         1 KK3         0.0000 
     27 H         -44.6446  -46.4238   28.5680 H         1 KK3         0.0000 
     28 H         -44.9658  -48.1497   28.9488 H         1 KK3         0.0000 
     29 H         -44.3599  -47.4185   31.0497 H         1 KK3         0.0000 
     30 H         -44.7452  -45.1364   31.9252 H         1 KK3         0.0000 
     31 H         -45.6247  -44.7086   30.4186 H         1 KK3         0.0000 
     32 H         -43.8740  -45.1055   30.3547 H         1 KK3         0.0000 
     33 H         -47.1356  -46.2895   31.3467 H         1 KK3         0.0000 
     34 H         -46.2527  -47.4745   32.3681 H         1 KK3         0.0000 
     35 H         -48.0532  -48.6318   31.2532 H         1 KK3         0.0000 
     36 H         -46.5061  -49.1529   30.5037 H         1 KK3         0.0000 
     37 H         -49.6164  -47.5181   31.4074 H         1 KK3         0.1500 
     38 H         -50.6170  -46.9200   25.7420 H         1 KK3         0.4000 
     39 H         -52.2461  -46.5405   26.3623 H         1 KK3         0.4000 
     40 H         -53.0541  -48.8593   31.0394 H         1 KK3         0.1500 
     41 H         -54.9083  -48.5313   32.6641 H         1 KK3         0.1500 
     42 H         -53.8666  -44.3866   33.0101 H         1 KK3         0.1500 
     43 H         -52.0340  -44.6991   31.3838 H         1 KK3         0.1500 
@<TRIPOS>BOND
     1    1    2 1    
     2    1    7 1    
     3    2    3 1    
     4    3    4 1    
     5    3    5 1    
     6    5    6 1    
     7    6    7 1    
     8    7    8 1    
     9    8    9 ar   
    10    8   10 ar   
    11    9   14 ar   
    12   10   11 ar   
    13   11   12 1    
    14   11   13 ar   
    15   13   14 ar   
    16   14   15 1    
    17   15   16 ar   
    18   15   24 ar   
    19   16   17 ar   
    20   17   18 ar   
    21   18   19 1    
    22   18   23 ar   
    23   19   20 1    
    24   19   21 1    
    25   19   22 1    
    26   23   24 ar   
    27    1   25 1    
    28    1   26 1    
    29    2   27 1    
    30    2   28 1    
    31    3   29 1    
    32    4   30 1    
    33    4   31 1    
    34    4   32 1    
    35    5   33 1    
    36    5   34 1    
    37    6   35 1    
    38    6   36 1    
    39    9   37 1    
    40   12   38 1    
    41   12   39 1    
    42   16   40 1    
    43   17   41 1    
    44   23   42 1    
    45   24   43 1    
@<TRIPOS>SUBSTRUCTURE
     1 KK3         1 PERM              0 ****  ****    0 ROOT 
@<TRIPOS>NORMAL
@<TRIPOS>ALT_TYPE
MMFF94_ALT_TYPE_SET 
MMFF94 1 CR 2 CR 3 CR 4 CR 5 CR 6 CR 19 CR 8 CB 9 CB 11 CB 14 CB 15 CB \
16 CB 17 CB 18 CB 23 CB 24 CB 25 HC 26 HC 27 HC 28 HC \
29 HC 30 HC 31 HC 32 HC 33 HC 34 HC 35 HC 36 HC 37 HC \
40 HC 41 HC 42 HC 43 HC 38 HNCN 39 HNCN 10 NPYD 13 NPYD \
7 NC=N 12 NC=N 20 F 21 F 22 F 
