#	Name:			3uex_ligand
#	Creating user name:	suminyi
#	Creation time:		Sun Sep 30 06:51:01 2018

#	Modifying user name:	suminyi
#	Modification time:	Sun Sep 30 06:51:01 2018

@<TRIPOS>MOLECULE
3uex_ligand
   55    54     1     1     0
SMALL
MMFF94_CHARGES


@<TRIPOS>ATOM
      1 C1         -0.0310    2.3450   20.5760 C.2       1 MOL         0.9060 
      2 O1         -0.7590    1.4350   20.8960 O.co2     1 MOL        -0.9000 
      3 O2          1.0200    2.6460   21.1060 O.co2     1 MOL        -0.9000 
      4 C2         -0.6070    3.4010   19.6870 C.3       1 MOL        -0.1060 
      5 C3         -1.2860    4.4590   20.5760 C.3       1 MOL         0.0000 
      6 C4         -2.5630    4.9670   19.9060 C.3       1 MOL         0.0000 
      7 C5         -3.3650    5.8420   20.8840 C.3       1 MOL         0.0000 
      8 C6         -4.2660    6.8360   20.1360 C.3       1 MOL         0.0000 
      9 C7         -3.4060    7.8600   19.3590 C.3       1 MOL         0.0000 
     10 C8         -4.1550    9.1790   19.1800 C.3       1 MOL         0.0000 
     11 C9         -3.2060   10.3350   18.8310 C.3       1 MOL         0.0000 
     12 C10        -3.9900   11.6530   18.6760 C.3       1 MOL         0.0000 
     13 C11        -3.0720   12.8630   18.9000 C.3       1 MOL         0.0000 
     14 C12        -3.6900   14.1550   18.3420 C.3       1 MOL         0.0000 
     15 C13        -2.7270   15.3420   18.5440 C.3       1 MOL         0.0000 
     16 C14        -3.3910   16.6960   18.2220 C.3       1 MOL         0.0000 
     17 C15        -3.6870   16.8850   16.7220 C.3       1 MOL         0.0000 
     18 C16        -4.4300   18.2170   16.4890 C.3       1 MOL         0.0000 
     19 C17        -4.5970   18.5500   14.9910 C.3       1 MOL         0.0000 
     20 C18        -5.4120   17.4870   14.2270 C.3       1 MOL         0.0000 
     21 H1         -1.3160    2.9310   19.0020 H         1 MOL         0.0000 
     22 H2          0.1820    3.8560   19.0840 H         1 MOL         0.0000 
     23 H3         -0.5930    5.2850   20.7630 H         1 MOL         0.0000 
     24 H4         -1.5480    4.0310   21.5490 H         1 MOL         0.0000 
     25 H5         -3.1870    4.1260   19.5960 H         1 MOL         0.0000 
     26 H6         -2.2770    5.5060   19.0060 H         1 MOL         0.0000 
     27 H7         -2.6930    6.3980   21.5400 H         1 MOL         0.0000 
     28 H8         -3.9690    5.1980   21.5280 H         1 MOL         0.0000 
     29 H9         -4.8860    7.3400   20.8800 H         1 MOL         0.0000 
     30 H10        -4.9380    6.3080   19.4540 H         1 MOL         0.0000 
     31 H11        -3.1380    7.4650   18.3790 H         1 MOL         0.0000 
     32 H12        -2.4800    8.0540   19.9090 H         1 MOL         0.0000 
     33 H13        -4.6110    9.4120   20.1280 H         1 MOL         0.0000 
     34 H14        -4.9600    9.0710   18.4540 H         1 MOL         0.0000 
     35 H15        -2.6600   10.1160   17.9100 H         1 MOL         0.0000 
     36 H16        -2.4720   10.4370   19.6350 H         1 MOL         0.0000 
     37 H17        -4.8100   11.7030   19.3930 H         1 MOL         0.0000 
     38 H18        -4.4260   11.6890   17.6790 H         1 MOL         0.0000 
     39 H19        -2.1210   12.6800   18.4110 H         1 MOL         0.0000 
     40 H20        -2.8690   12.9710   19.9690 H         1 MOL         0.0000 
     41 H21        -4.6390   14.3510   18.8440 H         1 MOL         0.0000 
     42 H22        -3.9030   14.0260   17.2790 H         1 MOL         0.0000 
     43 H23        -1.8360   15.2030   17.9280 H         1 MOL         0.0000 
     44 H24        -2.4010   15.3610   19.5860 H         1 MOL         0.0000 
     45 H25        -2.7360   17.5000   18.5630 H         1 MOL         0.0000 
     46 H26        -4.3230   16.7780   18.7820 H         1 MOL         0.0000 
     47 H27        -4.3030   16.0610   16.3600 H         1 MOL         0.0000 
     48 H28        -2.7520   16.8700   16.1580 H         1 MOL         0.0000 
     49 H29        -3.8800   19.0320   16.9670 H         1 MOL         0.0000 
     50 H30        -5.4110   18.1700   16.9670 H         1 MOL         0.0000 
     51 H31        -3.6160   18.6560   14.5240 H         1 MOL         0.0000 
     52 H32        -5.0960   19.5170   14.8990 H         1 MOL         0.0000 
     53 H33        -5.6190   17.8310   13.2130 H         1 MOL         0.0000 
     54 H34        -6.3650   17.2910   14.7220 H         1 MOL         0.0000 
     55 H35        -4.8580   16.5490   14.1500 H         1 MOL         0.0000 
@<TRIPOS>BOND
     1    1    2 ar   
     2    1    3 ar   
     3    1    4 1    
     4    4    5 1    
     5    5    6 1    
     6    6    7 1    
     7    7    8 1    
     8    8    9 1    
     9    9   10 1    
    10   10   11 1    
    11   11   12 1    
    12   12   13 1    
    13   13   14 1    
    14   14   15 1    
    15   15   16 1    
    16   16   17 1    
    17   17   18 1    
    18   18   19 1    
    19   19   20 1    
    20    4   21 1    
    21    4   22 1    
    22    5   23 1    
    23    5   24 1    
    24    6   25 1    
    25    6   26 1    
    26    7   27 1    
    27    7   28 1    
    28    8   29 1    
    29    8   30 1    
    30    9   31 1    
    31    9   32 1    
    32   10   33 1    
    33   10   34 1    
    34   11   35 1    
    35   11   36 1    
    36   12   37 1    
    37   12   38 1    
    38   13   39 1    
    39   13   40 1    
    40   14   41 1    
    41   14   42 1    
    42   15   43 1    
    43   15   44 1    
    44   16   45 1    
    45   16   46 1    
    46   17   47 1    
    47   17   48 1    
    48   18   49 1    
    49   18   50 1    
    50   19   51 1    
    51   19   52 1    
    52   20   53 1    
    53   20   54 1    
    54   20   55 1    
@<TRIPOS>SUBSTRUCTURE
     1 MOL         1 PERM              0 ****  ****    0 ROOT 
@<TRIPOS>NORMAL
@<TRIPOS>ALT_TYPE
MMFF94_ALT_TYPE_SET 
MMFF94 4 CR 5 CR 6 CR 7 CR 8 CR 9 CR 10 CR 11 CR 12 CR 13 CR 14 CR 15 CR \
16 CR 17 CR 18 CR 19 CR 20 CR 1 CO2M 21 HC 22 HC 23 HC \
24 HC 25 HC 26 HC 27 HC 28 HC 29 HC 30 HC 31 HC 32 HC \
33 HC 34 HC 35 HC 36 HC 37 HC 38 HC 39 HC 40 HC 41 HC \
42 HC 43 HC 44 HC 45 HC 46 HC 47 HC 48 HC 49 HC 50 HC \
51 HC 52 HC 53 HC 54 HC 55 HC 2 O2CM 3 O2CM 
