#	Name:			3uev_ligand
#	Creating user name:	suminyi
#	Creation time:		Sun Sep 30 06:50:56 2018

#	Modifying user name:	suminyi
#	Modification time:	Sun Sep 30 06:50:56 2018

@<TRIPOS>MOLECULE
3uev_ligand
   43    42     1     1     0
SMALL
MMFF94_CHARGES


@<TRIPOS>ATOM
      1 C1         -0.7720    3.7420   19.5500 C.2       1 MOL         0.9060 
      2 O1         -0.3950    4.1510   18.4780 O.co2     1 MOL        -0.9000 
      3 O2         -0.4690    2.6240   19.8950 O.co2     1 MOL        -0.9000 
      4 C2         -0.9310    4.7800   20.6300 C.3       1 MOL        -0.1060 
      5 C3         -2.4100    5.1360   20.9000 C.3       1 MOL         0.0000 
      6 C4         -3.0670    6.0020   19.8000 C.3       1 MOL         0.0000 
      7 C5         -2.2920    7.3130   19.5220 C.3       1 MOL         0.0000 
      8 C6         -3.2240    8.4360   19.0370 C.3       1 MOL         0.0000 
      9 C7         -2.4790    9.7830   18.9220 C.3       1 MOL         0.0000 
     10 C8         -3.3920   10.8970   18.3690 C.3       1 MOL         0.0000 
     11 C9         -2.8020   12.2930   18.6420 C.3       1 MOL         0.0000 
     12 C10        -3.5020   13.3660   17.7850 C.3       1 MOL         0.0000 
     13 C11        -2.9390   14.7750   18.0570 C.3       1 MOL         0.0000 
     14 C12        -3.4120   15.7690   16.9790 C.3       1 MOL         0.0000 
     15 C13        -3.5090   17.2110   17.5100 C.3       1 MOL         0.0000 
     16 C14        -3.9160   18.1760   16.3820 C.3       1 MOL         0.0000 
     17 H1         -0.3560    5.6700   20.3650 H         1 MOL         0.0000 
     18 H2         -0.4910    4.3930   21.5510 H         1 MOL         0.0000 
     19 H3         -2.4700    5.6750   21.8470 H         1 MOL         0.0000 
     20 H4         -2.9840    4.2150   21.0320 H         1 MOL         0.0000 
     21 H5         -4.0810    6.2340   20.1360 H         1 MOL         0.0000 
     22 H6         -3.1620    5.4270   18.8750 H         1 MOL         0.0000 
     23 H7         -1.5160    7.1260   18.7750 H         1 MOL         0.0000 
     24 H8         -1.7960    7.6490   20.4330 H         1 MOL         0.0000 
     25 H9         -4.0400    8.5430   19.7490 H         1 MOL         0.0000 
     26 H10        -3.6620    8.1590   18.0830 H         1 MOL         0.0000 
     27 H11        -1.6140    9.6710   18.2630 H         1 MOL         0.0000 
     28 H12        -2.1090   10.0710   19.9070 H         1 MOL         0.0000 
     29 H13        -4.3880   10.8380   18.8110 H         1 MOL         0.0000 
     30 H14        -3.5010   10.7580   17.2950 H         1 MOL         0.0000 
     31 H15        -1.7400   12.2820   18.4080 H         1 MOL         0.0000 
     32 H16        -2.8990   12.5320   19.7030 H         1 MOL         0.0000 
     33 H17        -4.5750   13.3600   17.9940 H         1 MOL         0.0000 
     34 H18        -3.3770   13.1230   16.7280 H         1 MOL         0.0000 
     35 H19        -1.8460   14.7590   18.0760 H         1 MOL         0.0000 
     36 H20        -3.2760   15.1010   19.0390 H         1 MOL         0.0000 
     37 H21        -4.3990   15.4840   16.6180 H         1 MOL         0.0000 
     38 H22        -2.7250   15.7200   16.1310 H         1 MOL         0.0000 
     39 H23        -2.5630   17.5180   17.9570 H         1 MOL         0.0000 
     40 H24        -4.2640   17.2480   18.2940 H         1 MOL         0.0000 
     41 H25        -4.2050   19.1420   16.7820 H         1 MOL         0.0000 
     42 H26        -4.7560   17.7760   15.8110 H         1 MOL         0.0000 
     43 H27        -3.0890   18.3540   15.7020 H         1 MOL         0.0000 
@<TRIPOS>BOND
     1    1    2 ar   
     2    1    3 ar   
     3    1    4 1    
     4    4    5 1    
     5    5    6 1    
     6    6    7 1    
     7    7    8 1    
     8    8    9 1    
     9    9   10 1    
    10   10   11 1    
    11   11   12 1    
    12   12   13 1    
    13   13   14 1    
    14   14   15 1    
    15   15   16 1    
    16    4   17 1    
    17    4   18 1    
    18    5   19 1    
    19    5   20 1    
    20    6   21 1    
    21    6   22 1    
    22    7   23 1    
    23    7   24 1    
    24    8   25 1    
    25    8   26 1    
    26    9   27 1    
    27    9   28 1    
    28   10   29 1    
    29   10   30 1    
    30   11   31 1    
    31   11   32 1    
    32   12   33 1    
    33   12   34 1    
    34   13   35 1    
    35   13   36 1    
    36   14   37 1    
    37   14   38 1    
    38   15   39 1    
    39   15   40 1    
    40   16   41 1    
    41   16   42 1    
    42   16   43 1    
@<TRIPOS>SUBSTRUCTURE
     1 MOL         1 PERM              0 ****  ****    0 ROOT 
@<TRIPOS>NORMAL
@<TRIPOS>ALT_TYPE
MMFF94_ALT_TYPE_SET 
MMFF94 4 CR 5 CR 6 CR 7 CR 8 CR 9 CR 10 CR 11 CR 12 CR 13 CR 14 CR 15 CR \
16 CR 1 CO2M 17 HC 18 HC 19 HC 20 HC 21 HC 22 HC 23 HC \
24 HC 25 HC 26 HC 27 HC 28 HC 29 HC 30 HC 31 HC 32 HC \
33 HC 34 HC 35 HC 36 HC 37 HC 38 HC 39 HC 40 HC 41 HC \
42 HC 43 HC 2 O2CM 3 O2CM 
