#	Name:			3uev_ligand
#	Creating user name:	suminyi
#	Creation time:		Sun Sep 30 06:49:01 2018

#	Modifying user name:	suminyi
#	Modification time:	Sun Sep 30 06:49:01 2018

@<TRIPOS>MOLECULE
3uev_ligand
   43    42     1     1     0
SMALL
MMFF94_CHARGES


@<TRIPOS>ATOM
      1 C1         -0.9490    3.8100   19.6390 C.2       1 MYR         0.9060 
      2 O1         -1.0150    3.6800   18.3990 O.co2     1 MYR        -0.9000 
      3 O2         -0.8410    2.8340   20.4250 O.co2     1 MYR        -0.9000 
      4 C2         -0.9880    5.2160   20.1900 C.3       1 MYR        -0.1060 
      5 C3         -2.2750    5.4710   20.9810 C.3       1 MYR         0.0000 
      6 C4         -3.3110    6.2640   20.1940 C.3       1 MYR         0.0000 
      7 C5         -2.6460    7.2620   19.2500 C.3       1 MYR         0.0000 
      8 C6         -3.4440    8.5590   19.1860 C.3       1 MYR         0.0000 
      9 C7         -2.5390    9.7660   18.9520 C.3       1 MYR         0.0000 
     10 C8         -3.3500   10.9000   18.3560 C.3       1 MYR         0.0000 
     11 C9         -2.8620   12.2730   18.8230 C.3       1 MYR         0.0000 
     12 C10        -3.4780   13.3380   17.9350 C.3       1 MYR         0.0000 
     13 C11        -2.9400   14.7450   18.2220 C.3       1 MYR         0.0000 
     14 C12        -3.5540   15.6340   17.1770 C.3       1 MYR         0.0000 
     15 C13        -3.7400   17.0450   17.6610 C.3       1 MYR         0.0000 
     16 C14        -4.1920   17.9000   16.5090 C.3       1 MYR         0.0000 
     17 H1         -0.9342    5.9294   19.3545 H         1 MYR         0.0000 
     18 H2         -0.1242    5.3640   20.8548 H         1 MYR         0.0000 
     19 H3         -2.0210    6.0333   21.8916 H         1 MYR         0.0000 
     20 H4         -2.7133    4.5012   21.2592 H         1 MYR         0.0000 
     21 H5         -3.9543    6.8114   20.8987 H         1 MYR         0.0000 
     22 H6         -3.9237    5.5665   19.6041 H         1 MYR         0.0000 
     23 H7         -2.5891    6.8233   18.2429 H         1 MYR         0.0000 
     24 H8         -1.6308    7.4805   19.6127 H         1 MYR         0.0000 
     25 H9         -3.9811    8.6947   20.1363 H         1 MYR         0.0000 
     26 H10        -4.1690    8.4915   18.3615 H         1 MYR         0.0000 
     27 H11        -1.7313    9.4893   18.2584 H         1 MYR         0.0000 
     28 H12        -2.1052   10.0898   19.9096 H         1 MYR         0.0000 
     29 H13        -4.4014   10.7780   18.6554 H         1 MYR         0.0000 
     30 H14        -3.2729   10.8516   17.2598 H         1 MYR         0.0000 
     31 H15        -1.7654   12.3201   18.7506 H         1 MYR         0.0000 
     32 H16        -3.1681   12.4391   19.8664 H         1 MYR         0.0000 
     33 H17        -4.5664   13.3401   18.0942 H         1 MYR         0.0000 
     34 H18        -3.2614   13.0876   16.8860 H         1 MYR         0.0000 
     35 H19        -1.8430   14.7602   18.1425 H         1 MYR         0.0000 
     36 H20        -3.2392   15.0725   19.2286 H         1 MYR         0.0000 
     37 H21        -4.5359   15.2243   16.8975 H         1 MYR         0.0000 
     38 H22        -2.8975   15.6471   16.2945 H         1 MYR         0.0000 
     39 H23        -2.7872   17.4291   18.0542 H         1 MYR         0.0000 
     40 H24        -4.4997   17.0654   18.4562 H         1 MYR         0.0000 
     41 H25        -4.3310   18.9354   16.8533 H         1 MYR         0.0000 
     42 H26        -5.1440   17.5132   16.1166 H         1 MYR         0.0000 
     43 H27        -3.4315   17.8768   15.7146 H         1 MYR         0.0000 
@<TRIPOS>BOND
     1    1    2 ar   
     2    1    3 ar   
     3    1    4 1    
     4    4    5 1    
     5    5    6 1    
     6    6    7 1    
     7    7    8 1    
     8    8    9 1    
     9    9   10 1    
    10   10   11 1    
    11   11   12 1    
    12   12   13 1    
    13   13   14 1    
    14   14   15 1    
    15   15   16 1    
    16    4   17 1    
    17    4   18 1    
    18    5   19 1    
    19    5   20 1    
    20    6   21 1    
    21    6   22 1    
    22    7   23 1    
    23    7   24 1    
    24    8   25 1    
    25    8   26 1    
    26    9   27 1    
    27    9   28 1    
    28   10   29 1    
    29   10   30 1    
    30   11   31 1    
    31   11   32 1    
    32   12   33 1    
    33   12   34 1    
    34   13   35 1    
    35   13   36 1    
    36   14   37 1    
    37   14   38 1    
    38   15   39 1    
    39   15   40 1    
    40   16   41 1    
    41   16   42 1    
    42   16   43 1    
@<TRIPOS>SUBSTRUCTURE
     1 MYR         1 PERM              0 ****  ****    0 ROOT 
@<TRIPOS>NORMAL
@<TRIPOS>ALT_TYPE
MMFF94_ALT_TYPE_SET 
MMFF94 4 CR 5 CR 6 CR 7 CR 8 CR 9 CR 10 CR 11 CR 12 CR 13 CR 14 CR 15 CR \
16 CR 1 CO2M 17 HC 18 HC 19 HC 20 HC 21 HC 22 HC 23 HC \
24 HC 25 HC 26 HC 27 HC 28 HC 29 HC 30 HC 31 HC 32 HC \
33 HC 34 HC 35 HC 36 HC 37 HC 38 HC 39 HC 40 HC 41 HC \
42 HC 43 HC 2 O2CM 3 O2CM 
