#	Name:			2j7h_ligand
#	Creating user name:	suminyi
#	Creation time:		Sun Sep 30 06:51:09 2018

#	Modifying user name:	suminyi
#	Modification time:	Sun Sep 30 06:51:09 2018

@<TRIPOS>MOLECULE
2j7h_ligand
   24    24     1     1     0
SMALL
MMFF94_CHARGES


@<TRIPOS>ATOM
      1 O4         -1.6360   10.8040    6.5500 O.3       1 MOL        -0.6800 
      2 C4         -1.1330   10.6530    7.8910 C.3       1 MOL         0.2800 
      3 C3         -0.3370   11.9180    8.3200 C.3       1 MOL         0.2800 
      4 O3          0.8000   12.1000    7.4870 O.3       1 MOL        -0.6800 
      5 C2          0.2460   11.7640    9.7460 C.3       1 MOL         0.5030 
      6 N          -0.7650   11.3450   10.7940 N.4       1 MOL        -0.4030 
      7 C5         -2.2840   10.4560    8.9160 C.3       1 MOL         0.5030 
      8 C6         -3.1450    9.2410    8.5280 C.3       1 MOL         0.2800 
      9 O6         -2.3320    8.0900    8.8080 O.3       1 MOL        -0.6800 
     10 N2         -1.7030   10.2150   10.3040 N.4       1 MOL        -0.4030 
     11 H1         -1.9410    9.8930    6.1240 H         1 MOL         0.4000 
     12 H2         -0.4660    9.7840    7.9180 H         1 MOL         0.0000 
     13 H3         -0.9900   12.8000    8.2820 H         1 MOL         0.0000 
     14 H4          0.5490   12.4840    6.5710 H         1 MOL         0.4000 
     15 H5          0.6680   12.7280   10.0540 H         1 MOL         0.0000 
     16 H6          1.0550   11.0230    9.7360 H         1 MOL         0.0000 
     17 H7         -1.3120   12.2420   11.0260 H         1 MOL         0.4500 
     18 H8         -0.2790   11.1930   11.7530 H         1 MOL         0.4500 
     19 H9         -2.9040   11.3640    8.9350 H         1 MOL         0.0000 
     20 H10        -3.4600    9.2830    7.4810 H         1 MOL         0.0000 
     21 H11        -4.0540    9.2170    9.1390 H         1 MOL         0.0000 
     22 H12        -2.1050    7.6090    7.8840 H         1 MOL         0.4000 
     23 H13        -2.4900   10.0040   10.9610 H         1 MOL         0.4500 
     24 H14        -1.2410    9.2670   10.2110 H         1 MOL         0.4500 
@<TRIPOS>BOND
     1    1    2 1    
     2    2    3 1    
     3    2    7 1    
     4    3    4 1    
     5    3    5 1    
     6    5    6 1    
     7    6   10 1    
     8    7    8 1    
     9    7   10 1    
    10    8    9 1    
    11    1   11 1    
    12    2   12 1    
    13    3   13 1    
    14    4   14 1    
    15    5   15 1    
    16    5   16 1    
    17    6   17 1    
    18    6   18 1    
    19    7   19 1    
    20    8   20 1    
    21    8   21 1    
    22    9   22 1    
    23   10   23 1    
    24   10   24 1    
@<TRIPOS>SUBSTRUCTURE
     1 MOL         1 PERM              0 ****  ****    0 ROOT 
@<TRIPOS>NORMAL
@<TRIPOS>ALT_TYPE
MMFF94_ALT_TYPE_SET 
MMFF94 2 CR 3 CR 5 CR 7 CR 8 CR 12 HC 13 HC 15 HC 16 HC 19 HC 20 HC \
21 HC 17 HNR+ 18 HNR+ 23 HNR+ 24 HNR+ 11 HOR 14 HOR 22 HOR \
1 OR 4 OR 9 OR 6 NR+ 10 NR+ 
