#	Name:			4twp_ligand
#	Creating user name:	suminyi
#	Creation time:		Sun Sep 30 06:51:15 2018

#	Modifying user name:	suminyi
#	Modification time:	Sun Sep 30 06:51:15 2018

@<TRIPOS>MOLECULE
4twp_ligand
   46    49     1     1     0
SMALL
MMFF94_CHARGES


@<TRIPOS>ATOM
      1 O81        61.6920   19.7220   47.4700 O.2       1 MOL        -0.5700 
      2 C80        62.6120   19.4970   48.2290 C.2       1 MOL         0.5438 
      3 N82        63.3070   20.5640   48.6550 N.am      1 MOL        -0.7301 
      4 C88        62.9540   21.9560   48.3520 C.3       1 MOL         0.3001 
      5 C23        62.9860   18.1310   48.7820 C.ar      1 MOL         0.0862 
      6 C22        64.1250   18.0050   49.5980 C.ar      1 MOL        -0.1500 
      7 C21        64.4750   16.7860   50.1710 C.ar      1 MOL        -0.1500 
      8 C20        63.7430   15.6430   49.8930 C.ar      1 MOL        -0.1500 
      9 C18        62.2260   16.9620   48.5350 C.ar      1 MOL         0.1015 
     10 C19        62.6370   15.7320   49.0600 C.ar      1 MOL        -0.1500 
     11 S24        60.6860   16.9710   47.6310 S.3       1 MOL        -0.2030 
     12 C07        59.6380   15.9370   48.6290 C.ar      1 MOL         0.1015 
     13 C08        59.7180   15.9710   50.0280 C.ar      1 MOL        -0.1500 
     14 C09        58.9660   15.0910   50.8110 C.ar      1 MOL        -0.1500 
     15 C12        58.7590   15.0510   48.0070 C.ar      1 MOL        -0.1500 
     16 C11        58.0090   14.1930   48.8020 C.ar      1 MOL         0.3480 
     17 N15        57.1440   13.2910   48.3420 N.2       1 MOL        -0.7660 
     18 N14        56.6650   12.7240   49.4900 N.pl3     1 MOL         0.4076 
     19 C13        57.2460   13.1850   50.6540 C.2       1 MOL        -0.1966 
     20 C10        58.1170   14.1980   50.1650 C.ar      1 MOL         0.0000 
     21 C16        56.9350   12.6460   51.9760 C.2       1 MOL        -0.1050 
     22 C17        57.4650   12.9680   53.1690 C.2       1 MOL        -0.1784 
     23 C02        57.2010   12.3950   54.5080 C.ar      1 MOL         0.3384 
     24 N03        57.9040   12.9310   55.5360 N.ar      1 MOL        -0.6200 
     25 C04        57.7430   12.3700   56.7580 C.ar      1 MOL         0.1600 
     26 C05        56.8810   11.3040   56.9960 C.ar      1 MOL        -0.1500 
     27 C06        56.1450   10.7730   55.9440 C.ar      1 MOL        -0.1500 
     28 C01        56.3140   11.3300   54.6820 C.ar      1 MOL        -0.1500 
     29 H1         64.1310   20.3970   49.2020 H         1 MOL         0.3700 
     30 H2         63.2860   22.6020   49.1670 H         1 MOL         0.0000 
     31 H3         61.8670   22.0560   48.2510 H         1 MOL         0.0000 
     32 H4         63.4370   22.2570   47.4190 H         1 MOL         0.0000 
     33 H5         64.7900   18.8460   49.7800 H         1 MOL         0.1500 
     34 H6         65.3510   16.7220   50.8120 H         1 MOL         0.1500 
     35 H7         64.0410   14.6880   50.3210 H         1 MOL         0.1500 
     36 H8         62.0690   14.8330   48.8450 H         1 MOL         0.1500 
     37 H9         60.4030   16.6620   50.5090 H         1 MOL         0.1500 
     38 H10        59.0620   15.1170   51.8860 H         1 MOL         0.1500 
     39 H11        58.6800   15.0130   46.9240 H         1 MOL         0.1500 
     40 H12        55.9260   12.0490   49.4270 H         1 MOL         0.1620 
     41 H13        56.1820   11.8570   51.9540 H         1 MOL         0.1500 
     42 H14        58.2230   13.7370   53.1890 H         1 MOL         0.1500 
     43 H15        58.3350   12.8020   57.5630 H         1 MOL         0.1500 
     44 H16        56.8070   10.8720   57.9920 H         1 MOL         0.1500 
     45 H17        55.4780    9.9240   56.0970 H         1 MOL         0.1500 
     46 H18        55.7820   10.8960   53.8410 H         1 MOL         0.1500 
@<TRIPOS>BOND
     1    1    2 2    
     2    2    3 am   
     3    2    5 1    
     4    3    4 1    
     5    5    6 ar   
     6    5    9 ar   
     7    6    7 ar   
     8    7    8 ar   
     9    8   10 ar   
    10    9   10 ar   
    11    9   11 1    
    12   11   12 1    
    13   12   13 ar   
    14   12   15 ar   
    15   13   14 ar   
    16   14   20 ar   
    17   15   16 ar   
    18   16   17 2    
    19   16   20 ar   
    20   17   18 1    
    21   18   19 1    
    22   19   20 2    
    23   19   21 1    
    24   21   22 2    
    25   22   23 1    
    26   23   24 ar   
    27   23   28 ar   
    28   24   25 ar   
    29   25   26 ar   
    30   26   27 ar   
    31   27   28 ar   
    32    3   29 1    
    33    4   30 1    
    34    4   31 1    
    35    4   32 1    
    36    6   33 1    
    37    7   34 1    
    38    8   35 1    
    39   10   36 1    
    40   13   37 1    
    41   14   38 1    
    42   15   39 1    
    43   18   40 1    
    44   21   41 1    
    45   22   42 1    
    46   25   43 1    
    47   26   44 1    
    48   27   45 1    
    49   28   46 1    
@<TRIPOS>SUBSTRUCTURE
     1 MOL         1 PERM              0 ****  ****    0 ROOT 
@<TRIPOS>NORMAL
@<TRIPOS>ALT_TYPE
MMFF94_ALT_TYPE_SET 
MMFF94 4 CR 19 C5A 5 CB 6 CB 7 CB 8 CB 9 CB 10 CB 12 CB 13 CB 14 CB \
15 CB 16 CB 20 CB 23 CB 25 CB 26 CB 27 CB 28 CB 2 C=ON \
21 C=C 22 C=C 30 HC 31 HC 32 HC 33 HC 34 HC 35 HC 36 HC \
37 HC 38 HC 39 HC 41 HC 42 HC 43 HC 44 HC 45 HC 46 HC \
40 HNCC 29 HNCO 1 O=CN 24 NPYD 18 NPYL 17 N5A 3 NC=O \
11 S 
