#	Name:			3myg_ligand
#	Creating user name:	suminyi
#	Creation time:		Sun Sep 30 06:49:06 2018

#	Modifying user name:	suminyi
#	Modification time:	Sun Sep 30 06:49:06 2018

@<TRIPOS>MOLECULE
3myg_ligand
   57    60     1     1     0
SMALL
MMFF94_CHARGES


@<TRIPOS>ATOM
      1 C1         -6.6090   28.8490   76.3490 C.2       1 EML        -0.0010 
      2 N1         -2.8040   32.8750   78.9790 N.pl3     1 EML        -0.5340 
      3 O1         -1.9810   36.2590   84.9640 O.3       1 EML        -0.6800 
      4 S1         -2.4400   33.0800   81.7570 S.3       1 EML         0.1807 
      5 C2         -5.6390   29.7710   79.1770 C.2       1 EML        -0.1810 
      6 N2         -4.0140   31.6090   76.5240 N.2       1 EML        -0.5653 
      7 C3         -5.1610   30.3470   80.3300 C.2       1 EML         0.0328 
      8 N3         -5.1630   30.2680   77.9830 N.pl3     1 EML         0.3342 
      9 C4          1.1490   36.3440   84.0230 C.3       1 EML         0.5030 
     10 N4         -7.7370   27.2780   75.2780 N.pl3     1 EML         0.2996 
     11 C5         -3.7390   31.8510   79.0280 C.2       1 EML         0.5850 
     12 N5         -8.4020   27.6320   76.3930 N.2       1 EML        -0.7068 
     13 C6         -4.2480   31.2730   77.8630 C.2       1 EML         0.1015 
     14 N6         -1.4840   34.1490   82.3750 N.2       1 EML        -0.5095 
     15 C7         -5.5580   29.8780   76.7210 C.2       1 EML        -0.1506 
     16 N7         -4.2480   31.3870   80.2250 N.2       1 EML        -0.6210 
     17 C8         -7.7640   28.5980   77.0850 C.2       1 EML         0.1388 
     18 N8         -0.0080   36.5430   83.1470 N.4       1 EML        -0.9590 
     19 C9         -4.8200   30.7450   75.8730 C.2       1 EML         0.0772 
     20 C10        -6.6150   27.9960   75.2040 C.2       1 EML        -0.3016 
     21 C11        -2.1950   33.4680   80.0870 C.2       1 EML         0.1240 
     22 C12        -1.2640   34.5130   80.0930 C.2       1 EML        -0.1500 
     23 C13         0.1020   35.9410   81.7610 C.3       1 EML         0.6840 
     24 C14        -0.8930   34.8650   81.3910 C.2       1 EML         0.1078 
     25 C15        -0.8090   37.7650   83.3870 C.3       1 EML         0.5030 
     26 C16         1.9300   35.0620   84.0150 C.3       1 EML         0.0000 
     27 C17        -1.7150   37.6350   84.6330 C.3       1 EML         0.2800 
     28 C18        -1.8400   38.0430   82.3480 C.3       1 EML         0.0000 
     29 C19        -5.5830   29.8750   81.6780 C.3       1 EML         0.1382 
     30 C20         0.0680   39.0490   83.4020 C.3       1 EML         0.0000 
     31 H1         -2.5370   33.2269   78.0485 H         1 EML         0.4000 
     32 H2         -2.5387   36.2213   85.7321 H         1 EML         0.4000 
     33 H3         -6.3623   28.9574   79.2058 H         1 EML         0.1500 
     34 H4          0.7852   36.4788   85.0523 H         1 EML         0.0000 
     35 H5          1.8637   37.1438   83.7790 H         1 EML         0.0000 
     36 H6         -8.0433   26.5703   74.5952 H         1 EML         0.2700 
     37 H7         -8.0810   29.0747   78.0114 H         1 EML         0.1500 
     38 H8         -0.6398   35.8702   83.5522 H         1 EML         0.4500 
     39 H9         -4.8980   30.7151   74.7872 H         1 EML         0.1500 
     40 H10        -5.8553   27.9422   74.4256 H         1 EML         0.1500 
     41 H11        -0.8769   34.9923   79.1951 H         1 EML         0.1500 
     42 H12         1.1082   35.5063   81.6686 H         1 EML         0.0000 
     43 H13        -0.0118   36.7597   81.0353 H         1 EML         0.0000 
     44 H14         2.7506   35.1281   84.7445 H         1 EML         0.0000 
     45 H15         2.3451   34.8918   83.0107 H         1 EML         0.0000 
     46 H16         1.2666   34.2268   84.2840 H         1 EML         0.0000 
     47 H17        -1.2157   38.1158   85.4871 H         1 EML         0.0000 
     48 H18        -2.6697   38.1433   84.4327 H         1 EML         0.0000 
     49 H19        -2.3828   38.9639   82.6073 H         1 EML         0.0000 
     50 H20        -2.5473   37.2020   82.2990 H         1 EML         0.0000 
     51 H21        -1.3511   38.1684   81.3706 H         1 EML         0.0000 
     52 H22        -5.0797   30.4747   82.4506 H         1 EML         0.0000 
     53 H23        -5.3083   28.8167   81.7986 H         1 EML         0.0000 
     54 H24        -6.6727   29.9850   81.7805 H         1 EML         0.0000 
     55 H25        -0.5700   39.9266   83.5830 H         1 EML         0.0000 
     56 H26         0.5750   39.1581   82.4319 H         1 EML         0.0000 
     57 H27         0.8192   38.9706   84.2017 H         1 EML         0.0000 
@<TRIPOS>BOND
     1   15    1 1    
     2    1   17 1    
     3    1   20 2    
     4    2   11 1    
     5   21    2 1    
     6   27    3 1    
     7   14    4 1    
     8   21    4 1    
     9    7    5 2    
    10    8    5 1    
    11   13    6 2    
    12    6   19 1    
    13   16    7 1    
    14    7   29 1    
    15   13    8 1    
    16    8   15 1    
    17   18    9 1    
    18    9   26 1    
    19   10   12 1    
    20   20   10 1    
    21   11   13 1    
    22   11   16 2    
    23   17   12 2    
    24   24   14 2    
    25   15   19 2    
    26   18   23 1    
    27   25   18 1    
    28   22   21 2    
    29   24   22 1    
    30   23   24 1    
    31   25   27 1    
    32   25   28 1    
    33   25   30 1    
    34    2   31 1    
    35    3   32 1    
    36    5   33 1    
    37    9   34 1    
    38    9   35 1    
    39   10   36 1    
    40   17   37 1    
    41   18   38 1    
    42   19   39 1    
    43   20   40 1    
    44   22   41 1    
    45   23   42 1    
    46   23   43 1    
    47   26   44 1    
    48   26   45 1    
    49   26   46 1    
    50   27   47 1    
    51   27   48 1    
    52   28   49 1    
    53   28   50 1    
    54   28   51 1    
    55   29   52 1    
    56   29   53 1    
    57   29   54 1    
    58   30   55 1    
    59   30   56 1    
    60   30   57 1    
@<TRIPOS>SUBSTRUCTURE
     1 EML         1 PERM              0 ****  ****    0 ROOT 
@<TRIPOS>NORMAL
@<TRIPOS>ALT_TYPE
MMFF94_ALT_TYPE_SET 
MMFF94 9 CR 23 CR 25 CR 26 CR 27 CR 28 CR 29 CR 30 CR 13 C5A 15 C5A \
20 C5A 21 C5A 19 C5B 17 C5B 1 C5B 22 C5B 24 C5B 11 C=N \
5 C=C 7 C=C 33 HC 34 HC 35 HC 37 HC 39 HC 40 HC 41 HC \
42 HC 43 HC 44 HC 45 HC 46 HC 47 HC 48 HC 49 HC 50 HC \
51 HC 52 HC 53 HC 54 HC 55 HC 56 HC 57 HC 36 HPYL 31 HNCC \
38 HNR+ 32 HOR 3 OR 8 NPYL 10 NPYL 14 N5A 12 N5A 6 N5B \
16 N=C 18 NR+ 2 NC=N 4 STHI 
