#	Name:			3myg_ligand
#	Creating user name:	suminyi
#	Creation time:		Sun Sep 30 06:50:57 2018

#	Modifying user name:	suminyi
#	Modification time:	Sun Sep 30 06:50:57 2018

@<TRIPOS>MOLECULE
3myg_ligand
   57    60     1     1     0
SMALL
MMFF94_CHARGES


@<TRIPOS>ATOM
      1 C1         -6.2190   28.9600   76.5010 C.2       1 MOL        -0.0010 
      2 N1         -2.8500   33.0020   79.2510 N.pl3     1 MOL        -0.5340 
      3 O1         -1.8310   36.4720   85.0170 O.3       1 MOL        -0.6800 
      4 S1         -2.1230   33.0000   81.9550 S.3       1 MOL         0.1807 
      5 C2         -5.4000   29.7740   79.3820 C.2       1 MOL        -0.1810 
      6 N2         -3.7210   31.5800   76.7730 N.2       1 MOL        -0.5653 
      7 C3         -5.0420   30.5030   80.4900 C.2       1 MOL         0.0328 
      8 N3         -4.9890   30.3210   78.1910 N.pl3     1 MOL         0.3342 
      9 C4          1.5780   36.6820   83.7720 C.3       1 MOL         0.5030 
     10 N4         -7.4590   27.6550   75.3290 N.pl3     1 MOL         0.2996 
     11 C5         -3.7390   31.9650   79.2310 C.2       1 MOL         0.5850 
     12 N5         -7.9880   27.6150   76.5790 N.2       1 MOL        -0.7068 
     13 C6         -4.1000   31.3560   78.0460 C.2       1 MOL         0.1015 
     14 N6         -1.0940   34.0710   82.4890 N.2       1 MOL        -0.5095 
     15 C7         -5.2310   29.9450   76.8930 C.2       1 MOL        -0.1506 
     16 N7         -4.2000   31.6060   80.4380 N.2       1 MOL        -0.6210 
     17 C8         -7.2750   28.4640   77.3210 C.2       1 MOL         0.1388 
     18 N8          0.2090   36.5450   83.1300 N.4       1 MOL        -0.9590 
     19 C9         -4.4530   30.6660   76.0310 C.2       1 MOL         0.0772 
     20 C10        -6.3410   28.4530   75.2440 C.2       1 MOL        -0.3016 
     21 C11        -2.1160   33.5290   80.2910 C.2       1 MOL         0.1240 
     22 C12        -1.2550   34.5770   80.2050 C.2       1 MOL        -0.1500 
     23 C13         0.2690   36.0190   81.6910 C.3       1 MOL         0.6840 
     24 C14        -0.6870   34.8680   81.4830 C.2       1 MOL         0.1078 
     25 C15        -0.6510   37.7890   83.3270 C.3       1 MOL         0.5030 
     26 C16         2.2780   35.3530   84.0840 C.3       1 MOL         0.0000 
     27 C17        -1.2580   37.7620   84.7500 C.3       1 MOL         0.2800 
     28 C18        -1.8510   37.8450   82.3670 C.3       1 MOL         0.0000 
     29 C19        -5.5430   30.0260   81.8170 C.3       1 MOL         0.1382 
     30 C20         0.1210   39.1200   83.1390 C.3       1 MOL         0.0000 
     31 H1         -2.8030   33.4880   78.3460 H         1 MOL         0.4000 
     32 H2         -2.5640   36.3080   84.3780 H         1 MOL         0.4000 
     33 H3         -5.9560   28.8530   79.3910 H         1 MOL         0.1500 
     34 H4          1.4350   37.2210   84.7120 H         1 MOL         0.0000 
     35 H5          2.1970   37.3010   83.1140 H         1 MOL         0.0000 
     36 H6         -7.9220   27.1470   74.5840 H         1 MOL         0.2700 
     37 H7         -7.6010   28.6690   78.3300 H         1 MOL         0.1500 
     38 H8         -0.3230   35.8040   83.6510 H         1 MOL         0.4500 
     39 H9         -4.4080   30.6350   74.9480 H         1 MOL         0.1500 
     40 H10        -5.7780   28.5940   74.3270 H         1 MOL         0.1500 
     41 H11        -1.0410   35.1490   79.3090 H         1 MOL         0.1500 
     42 H12         1.2840   35.6740   81.4940 H         1 MOL         0.0000 
     43 H13         0.0500   36.8330   80.9960 H         1 MOL         0.0000 
     44 H14         3.1850   35.5410   84.6650 H         1 MOL         0.0000 
     45 H15         2.5680   34.8430   83.1650 H         1 MOL         0.0000 
     46 H16         1.6270   34.7070   84.6780 H         1 MOL         0.0000 
     47 H17        -0.4750   37.9590   85.4880 H         1 MOL         0.0000 
     48 H18        -2.0300   38.5330   84.8340 H         1 MOL         0.0000 
     49 H19        -2.5170   38.6800   82.6030 H         1 MOL         0.0000 
     50 H20        -2.4330   36.9250   82.3900 H         1 MOL         0.0000 
     51 H21        -1.5040   37.9950   81.3510 H         1 MOL         0.0000 
     52 H22        -5.1150   30.6070   82.6350 H         1 MOL         0.0000 
     53 H23        -5.2830   28.9790   81.9710 H         1 MOL         0.0000 
     54 H24        -6.6310   30.1150   81.8670 H         1 MOL         0.0000 
     55 H25        -0.5510   39.9810   83.1940 H         1 MOL         0.0000 
     56 H26         0.6090   39.1470   82.1610 H         1 MOL         0.0000 
     57 H27         0.8890   39.2600   83.9030 H         1 MOL         0.0000 
@<TRIPOS>BOND
     1   15    1 1    
     2    1   17 1    
     3    1   20 2    
     4    2   11 1    
     5   21    2 1    
     6   27    3 1    
     7   14    4 1    
     8   21    4 1    
     9    7    5 2    
    10    8    5 1    
    11   13    6 2    
    12    6   19 1    
    13   16    7 1    
    14    7   29 1    
    15   13    8 1    
    16    8   15 1    
    17   18    9 1    
    18    9   26 1    
    19   10   12 1    
    20   20   10 1    
    21   11   13 1    
    22   11   16 2    
    23   17   12 2    
    24   24   14 2    
    25   15   19 2    
    26   18   23 1    
    27   25   18 1    
    28   22   21 2    
    29   24   22 1    
    30   23   24 1    
    31   25   27 1    
    32   25   28 1    
    33   25   30 1    
    34    2   31 1    
    35    3   32 1    
    36    5   33 1    
    37    9   34 1    
    38    9   35 1    
    39   10   36 1    
    40   17   37 1    
    41   18   38 1    
    42   19   39 1    
    43   20   40 1    
    44   22   41 1    
    45   23   42 1    
    46   23   43 1    
    47   26   44 1    
    48   26   45 1    
    49   26   46 1    
    50   27   47 1    
    51   27   48 1    
    52   28   49 1    
    53   28   50 1    
    54   28   51 1    
    55   29   52 1    
    56   29   53 1    
    57   29   54 1    
    58   30   55 1    
    59   30   56 1    
    60   30   57 1    
@<TRIPOS>SUBSTRUCTURE
     1 MOL         1 PERM              0 ****  ****    0 ROOT 
@<TRIPOS>NORMAL
@<TRIPOS>ALT_TYPE
MMFF94_ALT_TYPE_SET 
MMFF94 9 CR 23 CR 25 CR 26 CR 27 CR 28 CR 29 CR 30 CR 13 C5A 15 C5A \
20 C5A 21 C5A 19 C5B 17 C5B 1 C5B 22 C5B 24 C5B 11 C=N \
5 C=C 7 C=C 33 HC 34 HC 35 HC 37 HC 39 HC 40 HC 41 HC \
42 HC 43 HC 44 HC 45 HC 46 HC 47 HC 48 HC 49 HC 50 HC \
51 HC 52 HC 53 HC 54 HC 55 HC 56 HC 57 HC 36 HPYL 31 HNCC \
38 HNR+ 32 HOR 3 OR 8 NPYL 10 NPYL 14 N5A 12 N5A 6 N5B \
16 N=C 18 NR+ 2 NC=N 4 STHI 
