#	Name:			3b27_ligand
#	Creating user name:	suminyi
#	Creation time:		Sun Sep 30 06:51:00 2018

#	Modifying user name:	suminyi
#	Modification time:	Sun Sep 30 06:51:00 2018

@<TRIPOS>MOLECULE
3b27_ligand
   25    26     1     1     0
SMALL
MMFF94_CHARGES


@<TRIPOS>ATOM
      1 C1         13.3910    4.7090   12.4800 C.3       1 MOL         0.2300 
      2 S2         11.9120    5.4650   11.7170 S.3       1 MOL        -0.3315 
      3 C3         10.5320    4.5780   12.3830 C.ar      1 MOL         0.7215 
      4 N4         10.7710    3.3770   12.9080 N.ar      1 MOL        -0.6200 
      5 N5          9.3350    5.1410   12.2900 N.ar      1 MOL        -0.6200 
      6 C6          8.3870    4.4430   12.8820 C.ar      1 MOL         0.7200 
      7 N7          7.1800    4.9590   12.8990 N.pl3     1 MOL        -0.9000 
      8 N10         8.4710    3.2510   13.4220 N.ar      1 MOL        -0.6200 
      9 C11         9.6930    2.7400   13.3730 C.ar      1 MOL         0.6200 
     10 C12         9.8920    1.3510   13.8970 C.ar      1 MOL         0.0000 
     11 C13        10.7630    1.1270   14.9800 C.ar      1 MOL        -0.1500 
     12 C14        10.9760   -0.1640   15.4630 C.ar      1 MOL        -0.1500 
     13 C15        10.3460   -1.2490   14.8620 C.ar      1 MOL        -0.1500 
     14 C16         9.4860   -1.0390   13.7880 C.ar      1 MOL        -0.1500 
     15 C17         9.2420    0.2470   13.3110 C.ar      1 MOL         0.1770 
     16 Cl18        8.1660    0.4200   11.9640 Cl        1 MOL        -0.1770 
     17 H1         14.2910    5.1660   12.0600 H         1 MOL         0.0000 
     18 H2         13.4000    3.6360   12.2690 H         1 MOL         0.0000 
     19 H3         13.3560    4.8610   13.5610 H         1 MOL         0.0000 
     20 H4          7.0840    5.9310   12.5630 H         1 MOL         0.4000 
     21 H5          6.5930    4.7140   13.6710 H         1 MOL         0.4000 
     22 H6         11.2610    1.9670   15.4610 H         1 MOL         0.1500 
     23 H7         11.6300   -0.3200   16.3170 H         1 MOL         0.1500 
     24 H8         10.5230   -2.2570   15.2300 H         1 MOL         0.1500 
     25 H9          9.0040   -1.8880   13.3080 H         1 MOL         0.1500 
@<TRIPOS>BOND
     1    1    2 1    
     2    2    3 1    
     3    3    4 ar   
     4    3    5 ar   
     5    4    9 ar   
     6    5    6 ar   
     7    6    7 1    
     8    6    8 ar   
     9    8    9 ar   
    10    9   10 1    
    11   10   11 ar   
    12   10   15 ar   
    13   11   12 ar   
    14   12   13 ar   
    15   13   14 ar   
    16   14   15 ar   
    17   15   16 1    
    18    1   17 1    
    19    1   18 1    
    20    1   19 1    
    21    7   20 1    
    22    7   21 1    
    23   11   22 1    
    24   12   23 1    
    25   13   24 1    
    26   14   25 1    
@<TRIPOS>SUBSTRUCTURE
     1 MOL         1 PERM              0 ****  ****    0 ROOT 
@<TRIPOS>NORMAL
@<TRIPOS>ALT_TYPE
MMFF94_ALT_TYPE_SET 
MMFF94 1 CR 3 CB 6 CB 9 CB 10 CB 11 CB 12 CB 13 CB 14 CB 15 CB 17 HC \
18 HC 19 HC 22 HC 23 HC 24 HC 25 HC 20 HNCN 21 HNCN 4 NPYD \
5 NPYD 8 NPYD 7 NC=N 2 S 16 CL 
