#	Name:			3b27_ligand
#	Creating user name:	suminyi
#	Creation time:		Sun Sep 30 06:48:55 2018

#	Modifying user name:	suminyi
#	Modification time:	Sun Sep 30 06:48:56 2018

@<TRIPOS>MOLECULE
3b27_ligand
   25    26     1     1     0
SMALL
MMFF94_CHARGES


@<TRIPOS>ATOM
      1 C1         13.6390    4.6690   12.6910 C.3       1 B2T         0.2300 
      2 S2         12.1830    5.4520   11.9770 S.3       1 B2T        -0.3315 
      3 C3         10.8620    4.5170   12.6220 C.ar      1 B2T         0.7215 
      4 N4         11.0520    3.2590   13.0550 N.ar      1 B2T        -0.6200 
      5 N5          9.6570    5.0710   12.5410 N.ar      1 B2T        -0.6200 
      6 C6          8.5880    4.3960   12.9960 C.ar      1 B2T         0.7200 
      7 N7          7.3810    4.9180   12.9250 N.pl3     1 B2T        -0.9000 
      8 N10         8.7510    3.1240   13.4250 N.ar      1 B2T        -0.6200 
      9 C11         9.9710    2.5570   13.4650 C.ar      1 B2T         0.6200 
     10 C12        10.0890    1.2360   13.9260 C.ar      1 B2T         0.0000 
     11 C13        10.9340    0.9760   15.0050 C.ar      1 B2T        -0.1500 
     12 C14        11.0630   -0.3510   15.4580 C.ar      1 B2T        -0.1500 
     13 C15        10.3470   -1.3750   14.8200 C.ar      1 B2T        -0.1500 
     14 C16         9.5130   -1.1260   13.7380 C.ar      1 B2T        -0.1500 
     15 C17         9.3780    0.1960   13.2900 C.ar      1 B2T         0.1770 
     16 CL18        8.3840    0.4520   11.8910 Cl        1 B2T        -0.1770 
     17 H1         14.5432    5.1899   12.3431 H         1 B2T         0.0000 
     18 H2         13.6795    3.6153   12.3778 H         1 B2T         0.0000 
     19 H3         13.5838    4.7235   13.7882 H         1 B2T         0.0000 
     20 H4          7.2573    5.8869   12.5982 H         1 B2T         0.4000 
     21 H5          6.5607    4.3573   13.1963 H         1 B2T         0.4000 
     22 H6         11.4805    1.7796   15.4852 H         1 B2T         0.1500 
     23 H7         11.7122   -0.5802   16.2953 H         1 B2T         0.1500 
     24 H8         10.4479   -2.3915   15.1827 H         1 B2T         0.1500 
     25 H9          8.9791   -1.9342   13.2513 H         1 B2T         0.1500 
@<TRIPOS>BOND
     1    1    2 1    
     2    2    3 1    
     3    3    4 ar   
     4    3    5 ar   
     5    4    9 ar   
     6    5    6 ar   
     7    6    7 1    
     8    6    8 ar   
     9    8    9 ar   
    10    9   10 1    
    11   10   11 ar   
    12   10   15 ar   
    13   11   12 ar   
    14   12   13 ar   
    15   13   14 ar   
    16   14   15 ar   
    17   15   16 1    
    18    1   17 1    
    19    1   18 1    
    20    1   19 1    
    21    7   20 1    
    22    7   21 1    
    23   11   22 1    
    24   12   23 1    
    25   13   24 1    
    26   14   25 1    
@<TRIPOS>SUBSTRUCTURE
     1 B2T         1 PERM              0 ****  ****    0 ROOT 
@<TRIPOS>NORMAL
@<TRIPOS>ALT_TYPE
MMFF94_ALT_TYPE_SET 
MMFF94 1 CR 3 CB 6 CB 9 CB 10 CB 11 CB 12 CB 13 CB 14 CB 15 CB 17 HC \
18 HC 19 HC 22 HC 23 HC 24 HC 25 HC 20 HNCN 21 HNCN 4 NPYD \
5 NPYD 8 NPYD 7 NC=N 2 S 16 CL 
