#	Name:			1a30_ligand
#	Creating user name:	suminyi
#	Creation time:		Sun Sep 30 06:51:01 2018

#	Modifying user name:	suminyi
#	Modification time:	Sun Sep 30 06:51:01 2018

@<TRIPOS>MOLECULE
1a30_ligand
   49    48     1     1     0
SMALL
MMFF94_CHARGES


@<TRIPOS>ATOM
      1 N           5.5200   27.8370    5.6740 N.4       1 MOL        -0.8530 
      2 CA          6.1210   26.6130    5.0020 C.3       1 MOL         0.5640 
      3 C           7.6400   26.7060    4.9190 C.2       1 MOL         0.5690 
      4 O           8.2180   27.6550    4.4400 O.2       1 MOL        -0.5700 
      5 CB          5.4450   26.1250    3.6950 C.3       1 MOL         0.0000 
      6 CG          5.7650   26.9790    2.4420 C.3       1 MOL        -0.1060 
      7 CD          4.7000   26.9130    1.3620 C.2       1 MOL         0.9060 
      8 OE1         3.5480   27.1160    1.7070 O.co2     1 MOL        -0.9000 
      9 OE2         5.0490   27.0360    0.2050 O.co2     1 MOL        -0.9000 
     10 N1          8.2230   25.7270    5.6280 N.am      1 MOL        -0.7301 
     11 C1          9.4390   25.8710    6.4450 C.3       1 MOL         0.3611 
     12 C3         10.1410   24.5210    6.4460 C.2       1 MOL         0.5690 
     13 O1          9.6330   23.5470    6.9900 O.2       1 MOL        -0.5700 
     14 C5          9.0480   26.3120    7.8890 C.3       1 MOL        -0.1060 
     15 C7          8.0220   27.4200    7.9120 C.2       1 MOL         0.9060 
     16 OD1         8.3610   28.5120    7.5310 O.co2     1 MOL        -0.9000 
     17 OD2         6.8420   27.0890    7.9160 O.co2     1 MOL        -0.9000 
     18 N2         11.1980   24.3780    5.6410 N.am      1 MOL        -0.7301 
     19 C2         11.3530   23.1790    4.7760 C.3       1 MOL         0.1941 
     20 C4         12.5020   22.1910    5.0670 C.2       1 MOL         0.9060 
     21 O2         12.2650   21.0340    4.7650 O.co2     1 MOL        -0.9000 
     22 C6         11.1230   23.6000    3.2890 C.3       1 MOL         0.0000 
     23 C8          9.6010   23.5160    2.9450 C.3       1 MOL         0.0000 
     24 CD1         9.1540   24.5310    1.8710 C.3       1 MOL         0.0000 
     25 CD2         9.2330   22.0860    2.5030 C.3       1 MOL         0.0000 
     26 OXT        13.2990   22.4560    5.9520 O.co2     1 MOL        -0.9000 
     27 H1          4.5400   27.7560    5.9230 H         1 MOL         0.4500 
     28 H2          5.7090   28.7280    5.1470 H         1 MOL         0.4500 
     29 H3          6.0630   27.9290    6.5930 H         1 MOL         0.4500 
     30 H4          5.9560   25.8220    5.7380 H         1 MOL         0.0000 
     31 H5          4.3670   26.0890    3.8650 H         1 MOL         0.0000 
     32 H6          5.7610   25.0980    3.4990 H         1 MOL         0.0000 
     33 H7          6.7200   26.6630    2.0190 H         1 MOL         0.0000 
     34 H8          5.8880   28.0180    2.7370 H         1 MOL         0.0000 
     35 H9          7.6180   24.9930    5.9660 H         1 MOL         0.3700 
     36 H10        10.1140   26.5950    5.9920 H         1 MOL         0.0000 
     37 H11         9.9360   26.6370    8.4320 H         1 MOL         0.0000 
     38 H12         8.6270   25.4630    8.4310 H         1 MOL         0.0000 
     39 H13        11.6930   25.2050    5.3300 H         1 MOL         0.3700 
     40 H14        10.5170   22.5240    5.0150 H         1 MOL         0.0000 
     41 H15        11.7030   22.9730    2.6060 H         1 MOL         0.0000 
     42 H16        11.4810   24.6240    3.1360 H         1 MOL         0.0000 
     43 H17         9.0290   23.7510    3.8440 H         1 MOL         0.0000 
     44 H18         8.1020   24.3720    1.6150 H         1 MOL         0.0000 
     45 H19         9.7520   24.4310    0.9650 H         1 MOL         0.0000 
     46 H20         9.2500   25.5540    2.2420 H         1 MOL         0.0000 
     47 H21         9.5600   21.3680    3.2530 H         1 MOL         0.0000 
     48 H22         9.7110   21.8350    1.5530 H         1 MOL         0.0000 
     49 H23         8.1540   21.9890    2.3890 H         1 MOL         0.0000 
@<TRIPOS>BOND
     1    3    2 1    
     2    2    5 1    
     3    2    1 1    
     4    5    6 1    
     5    6    7 1    
     6    7    8 ar   
     7    7    9 ar   
     8    3    4 2    
     9   12   11 1    
    10   11   14 1    
    11   11   10 1    
    12   14   15 1    
    13   15   16 ar   
    14   15   17 ar   
    15   12   13 2    
    16   19   20 1    
    17   19   22 1    
    18   18   19 1    
    19   22   23 1    
    20   23   25 1    
    21   23   24 1    
    22   20   26 ar   
    23   20   21 ar   
    24   10    3 am   
    25   12   18 am   
    26    1   27 1    
    27    1   28 1    
    28    1   29 1    
    29    2   30 1    
    30    5   31 1    
    31    5   32 1    
    32    6   33 1    
    33    6   34 1    
    34   10   35 1    
    35   11   36 1    
    36   14   37 1    
    37   14   38 1    
    38   18   39 1    
    39   19   40 1    
    40   22   41 1    
    41   22   42 1    
    42   23   43 1    
    43   24   44 1    
    44   24   45 1    
    45   24   46 1    
    46   25   47 1    
    47   25   48 1    
    48   25   49 1    
@<TRIPOS>SUBSTRUCTURE
     1 MOL         1 PERM              0 ****  ****    0 ROOT 
@<TRIPOS>NORMAL
@<TRIPOS>ALT_TYPE
MMFF94_ALT_TYPE_SET 
MMFF94 2 CR 5 CR 6 CR 11 CR 14 CR 19 CR 22 CR 23 CR 24 CR 25 CR 7 CO2M \
15 CO2M 20 CO2M 3 C=ON 12 C=ON 30 HC 31 HC 32 HC 33 HC \
34 HC 36 HC 37 HC 38 HC 40 HC 41 HC 42 HC 43 HC 44 HC \
45 HC 46 HC 47 HC 48 HC 49 HC 35 HNCO 39 HNCO 27 HNR+ \
28 HNR+ 29 HNR+ 8 O2CM 9 O2CM 16 O2CM 17 O2CM 21 O2CM \
26 O2CM 4 O=CN 13 O=CN 1 NR+ 10 NC=O 18 NC=O 
