#	Name:			3ao4_ligand
#	Creating user name:	suminyi
#	Creation time:		Sun Sep 30 06:50:59 2018

#	Modifying user name:	suminyi
#	Modification time:	Sun Sep 30 06:50:59 2018

@<TRIPOS>MOLECULE
3ao4_ligand
   27    29     1     1     0
SMALL
MMFF94_CHARGES


@<TRIPOS>ATOM
      1 C1         -0.7590   11.3220   -6.5430 C.ar      1 MOL        -0.1500 
      2 C2         -0.8700   10.1670   -5.7520 C.ar      1 MOL         0.0540 
      3 C3         -1.5340   10.2600   -4.5100 C.ar      1 MOL        -0.1500 
      4 C4         -2.0850   11.4700   -4.0640 C.ar      1 MOL        -0.1500 
      5 C5         -1.9510   12.5850   -4.8760 C.ar      1 MOL         0.0825 
      6 C6         -1.3070   12.5090   -6.0770 C.ar      1 MOL         0.0825 
      7 O7         -1.2950   13.7270   -6.6830 O.3       1 MOL        -0.3625 
      8 C8         -2.0460   14.6390   -5.8240 C.3       1 MOL         0.5600 
      9 O9         -2.3670   13.8630   -4.6360 O.3       1 MOL        -0.3625 
     10 C10        -0.3340    8.9180   -6.2770 C.2       1 MOL         0.2348 
     11 C11        -0.2930    7.7380   -5.4820 C.2       1 MOL        -0.1500 
     12 C12         0.2300    6.7700   -6.2750 C.2       1 MOL        -0.0676 
     13 N13         0.4870    7.3560   -7.4910 N.pl3     1 MOL         0.3140 
     14 N14         0.1300    8.6780   -7.5180 N.2       1 MOL        -0.7068 
     15 N15         0.5580    5.4800   -5.9750 N.pl3     1 MOL        -0.8840 
     16 C16         1.1220    6.6850   -8.6200 C.3       1 MOL         0.2556 
     17 H1         -0.2510   11.2960   -7.5030 H         1 MOL         0.1500 
     18 H2         -1.6250    9.3930   -3.8690 H         1 MOL         0.1500 
     19 H3         -2.5960   11.5470   -3.1050 H         1 MOL         0.1500 
     20 H4         -2.9760   14.9440   -6.3290 H         1 MOL         0.0000 
     21 H5         -1.4370   15.5200   -5.5670 H         1 MOL         0.0000 
     22 H6         -0.5640    7.6480   -4.4410 H         1 MOL         0.1500 
     23 H7         -0.1110    4.8640   -5.5050 H         1 MOL         0.4000 
     24 H8          1.1470    4.9040   -6.6120 H         1 MOL         0.4000 
     25 H9          1.1160    7.3340   -9.4960 H         1 MOL         0.0000 
     26 H10         0.5800    5.7610   -8.8420 H         1 MOL         0.0000 
     27 H11         2.1510    6.4320   -8.3520 H         1 MOL         0.0000 
@<TRIPOS>BOND
     1    1    2 ar   
     2    1    6 ar   
     3    2    3 ar   
     4    2   10 1    
     5    3    4 ar   
     6    4    5 ar   
     7    5    6 ar   
     8    5    9 1    
     9    6    7 1    
    10    7    8 1    
    11    8    9 1    
    12   10   11 1    
    13   10   14 2    
    14   11   12 2    
    15   12   13 1    
    16   12   15 1    
    17   13   14 1    
    18   13   16 1    
    19    1   17 1    
    20    3   18 1    
    21    4   19 1    
    22    8   20 1    
    23    8   21 1    
    24   11   22 1    
    25   15   23 1    
    26   15   24 1    
    27   16   25 1    
    28   16   26 1    
    29   16   27 1    
@<TRIPOS>SUBSTRUCTURE
     1 MOL         1 PERM              0 ****  ****    0 ROOT 
@<TRIPOS>NORMAL
@<TRIPOS>ALT_TYPE
MMFF94_ALT_TYPE_SET 
MMFF94 8 CR 16 CR 12 C5A 11 C5B 10 C5B 1 CB 2 CB 3 CB 4 CB 5 CB 6 CB \
17 HC 18 HC 19 HC 20 HC 21 HC 22 HC 25 HC 26 HC 27 HC \
23 HNCC 24 HNCC 7 OC=C 9 OC=C 13 NPYL 14 N5A 15 NC=N \

