#	Name:			3ao4_ligand
#	Creating user name:	suminyi
#	Creation time:		Sun Sep 30 06:48:48 2018

#	Modifying user name:	suminyi
#	Modification time:	Sun Sep 30 06:48:48 2018

@<TRIPOS>MOLECULE
3ao4_ligand
   27    29     1     1     0
SMALL
MMFF94_CHARGES


@<TRIPOS>ATOM
      1 C1         -0.6520   11.6500   -6.5400 C.ar      1 MOL        -0.1500 
      2 C2         -0.8490   10.4700   -5.7750 C.ar      1 MOL         0.0540 
      3 C3         -1.5910   10.5010   -4.5500 C.ar      1 MOL        -0.1500 
      4 C4         -2.1620   11.6710   -4.0350 C.ar      1 MOL        -0.1500 
      5 C5         -1.9850   12.8300   -4.7640 C.ar      1 MOL         0.0825 
      6 C6         -1.2370   12.8160   -6.0400 C.ar      1 MOL         0.0825 
      7 O7         -1.2350   14.1090   -6.5130 O.3       1 MOL        -0.3625 
      8 C8         -2.0680   14.9240   -5.6440 C.3       1 MOL         0.5600 
      9 O9         -2.3960   14.1190   -4.5040 O.3       1 MOL        -0.3625 
     10 C10        -0.2840    9.1620   -6.2260 C.2       1 MOL         0.2348 
     11 C11        -0.0680    8.0430   -5.4000 C.2       1 MOL        -0.1500 
     12 C12         0.4600    7.0540   -6.2300 C.2       1 MOL        -0.0676 
     13 N13         0.5620    7.4950   -7.4820 N.pl3     1 MOL         0.3140 
     14 N14         0.1080    8.8360   -7.5070 N.2       1 MOL        -0.7068 
     15 N15         0.8210    5.7850   -5.8370 N.pl3     1 MOL        -0.8840 
     16 C16         1.0560    6.9050   -8.7640 C.3       1 MOL         0.2556 
     17 H1         -0.0796   11.6463   -7.4606 H         1 MOL         0.1500 
     18 H2         -1.7160    9.5771   -3.9970 H         1 MOL         0.1500 
     19 H3         -2.7186   11.6670   -3.1048 H         1 MOL         0.1500 
     20 H4         -2.9855   15.2233   -6.1719 H         1 MOL         0.0000 
     21 H5         -1.5179   15.8222   -5.3267 H         1 MOL         0.0000 
     22 H6         -0.2712    7.9653   -4.3329 H         1 MOL         0.1500 
     23 H7          0.7184    5.5022   -4.8519 H         1 MOL         0.4000 
     24 H8          1.1937    5.1183   -6.5281 H         1 MOL         0.4000 
     25 H9          0.9518    7.6442   -9.5719 H         1 MOL         0.0000 
     26 H10         0.4649    6.0099   -9.0075 H         1 MOL         0.0000 
     27 H11         2.1148    6.6270   -8.6558 H         1 MOL         0.0000 
@<TRIPOS>BOND
     1    1    2 ar   
     2    1    6 ar   
     3    2    3 ar   
     4    2   10 1    
     5    3    4 ar   
     6    4    5 ar   
     7    5    6 ar   
     8    5    9 1    
     9    6    7 1    
    10    7    8 1    
    11    8    9 1    
    12   10   11 1    
    13   10   14 2    
    14   11   12 2    
    15   12   13 1    
    16   12   15 1    
    17   13   14 1    
    18   13   16 1    
    19    1   17 1    
    20    3   18 1    
    21    4   19 1    
    22    8   20 1    
    23    8   21 1    
    24   11   22 1    
    25   15   23 1    
    26   15   24 1    
    27   16   25 1    
    28   16   26 1    
    29   16   27 1    
@<TRIPOS>SUBSTRUCTURE
     1 MOL         1 PERM              0 ****  ****    0 ROOT 
@<TRIPOS>NORMAL
@<TRIPOS>ALT_TYPE
MMFF94_ALT_TYPE_SET 
MMFF94 8 CR 16 CR 12 C5A 11 C5B 10 C5B 1 CB 2 CB 3 CB 4 CB 5 CB 6 CB \
17 HC 18 HC 19 HC 20 HC 21 HC 22 HC 25 HC 26 HC 27 HC \
23 HNCC 24 HNCC 7 OC=C 9 OC=C 13 NPYL 14 N5A 15 NC=N \

