#	Name:			3dx1_ligand
#	Creating user name:	suminyi
#	Creation time:		Sun Sep 30 06:51:02 2018

#	Modifying user name:	suminyi
#	Modification time:	Sun Sep 30 06:51:02 2018

@<TRIPOS>MOLECULE
3dx1_ligand
   21    21     1     1     0
SMALL
MMFF94_CHARGES


@<TRIPOS>ATOM
      1 O3         33.7160   65.9100    7.1150 O.3       1 MOL        -0.6800 
      2 C3         32.9450   66.8910    7.8150 C.3       1 MOL         0.2800 
      3 C2         32.5490   66.4240    9.2380 C.3       1 MOL         0.2800 
      4 O2         33.4200   65.4200    9.7700 O.3       1 MOL        -0.6800 
      5 C1         31.1150   65.8440    9.1600 C.3       1 MOL         0.5030 
      6 N1         31.1470   64.4290    9.6410 N.4       1 MOL        -0.8530 
      7 C5         30.6930   65.9790    7.6870 C.3       1 MOL         0.0000 
      8 C4         31.5870   67.0850    7.1200 C.3       1 MOL         0.2800 
      9 O4         31.6530   66.9950    5.6980 O.3       1 MOL        -0.6800 
     10 H1         34.5050   66.4030    6.6910 H         1 MOL         0.4000 
     11 H2         33.5110   67.8200    7.8530 H         1 MOL         0.0000 
     12 H3         32.5500   67.2750    9.9210 H         1 MOL         0.0000 
     13 H4         34.3570   65.8400    9.9220 H         1 MOL         0.4000 
     14 H5         30.4710   66.4260    9.8250 H         1 MOL         0.0000 
     15 H6         30.3240   63.8700    9.8580 H         1 MOL         0.4500 
     16 H7         31.7510   64.4290   10.5040 H         1 MOL         0.4500 
     17 H8         31.8070   63.8930    9.0060 H         1 MOL         0.4500 
     18 H9         29.6380   66.2220    7.5770 H         1 MOL         0.0000 
     19 H10        30.9180   65.0550    7.1480 H         1 MOL         0.0000 
     20 H11        31.1850   68.0550    7.4050 H         1 MOL         0.0000 
     21 H12        32.5600   67.3360    5.3940 H         1 MOL         0.4000 
@<TRIPOS>BOND
     1    1    2 1    
     2    2    3 1    
     3    2    8 1    
     4    3    4 1    
     5    3    5 1    
     6    5    6 1    
     7    5    7 1    
     8    7    8 1    
     9    8    9 1    
    10    1   10 1    
    11    2   11 1    
    12    3   12 1    
    13    4   13 1    
    14    5   14 1    
    15    6   15 1    
    16    6   16 1    
    17    6   17 1    
    18    7   18 1    
    19    7   19 1    
    20    8   20 1    
    21    9   21 1    
@<TRIPOS>SUBSTRUCTURE
     1 MOL         1 PERM              0 ****  ****    0 ROOT 
@<TRIPOS>NORMAL
@<TRIPOS>ALT_TYPE
MMFF94_ALT_TYPE_SET 
MMFF94 2 CR 3 CR 5 CR 7 CR 8 CR 11 HC 12 HC 14 HC 18 HC 19 HC 20 HC \
15 HNR+ 16 HNR+ 17 HNR+ 10 HOR 13 HOR 21 HOR 1 OR 4 OR \
9 OR 6 NR+ 
