#	Name:			3dx1_ligand
#	Creating user name:	suminyi
#	Creation time:		Sun Sep 30 06:48:44 2018

#	Modifying user name:	suminyi
#	Modification time:	Sun Sep 30 06:48:44 2018

@<TRIPOS>MOLECULE
3dx1_ligand
   21    21     1     1     0
SMALL
MMFF94_CHARGES


@<TRIPOS>ATOM
      1 O3         33.6990   65.8280    7.0680 O.3       1 YHO        -0.6800 
      2 C3         32.9330   66.8210    7.7990 C.3       1 YHO         0.2800 
      3 C2         32.5520   66.2890    9.1930 C.3       1 YHO         0.2800 
      4 O2         33.4060   65.2010    9.5940 O.3       1 YHO        -0.6800 
      5 C1         31.0710   65.8390    9.0860 C.3       1 YHO         0.5030 
      6 N1         30.9530   64.4810    9.6380 N.4       1 YHO        -0.8530 
      7 C5         30.7420   65.8990    7.5950 C.3       1 YHO         0.0000 
      8 C4         31.5570   67.1270    7.1850 C.3       1 YHO         0.2800 
      9 O4         31.6230   67.3100    5.7730 O.3       1 YHO        -0.6800 
     10 H1         34.4927   65.6249    7.5490 H         1 YHO         0.4000 
     11 H2         33.5306   67.7413    7.8761 H         1 YHO         0.0000 
     12 H3         32.6412   67.0964    9.9348 H         1 YHO         0.0000 
     13 H4         33.3267   64.4906    8.9684 H         1 YHO         0.4000 
     14 H5         30.4124   66.5195    9.6456 H         1 YHO         0.0000 
     15 H6         29.9947   64.1749    9.5751 H         1 YHO         0.4500 
     16 H7         31.2419   64.4845   10.6037 H         1 YHO         0.4500 
     17 H8         31.5415   63.8528    9.1135 H         1 YHO         0.4500 
     18 H9         29.6661   66.0480    7.4212 H         1 YHO         0.0000 
     19 H10        31.0768   64.9937    7.0675 H         1 YHO         0.0000 
     20 H11        31.1291   68.0363    7.6322 H         1 YHO         0.0000 
     21 H12        32.0290   66.5490    5.3748 H         1 YHO         0.4000 
@<TRIPOS>BOND
     1    1    2 1    
     2    2    3 1    
     3    2    8 1    
     4    3    4 1    
     5    3    5 1    
     6    5    6 1    
     7    5    7 1    
     8    7    8 1    
     9    8    9 1    
    10    1   10 1    
    11    2   11 1    
    12    3   12 1    
    13    4   13 1    
    14    5   14 1    
    15    6   15 1    
    16    6   16 1    
    17    6   17 1    
    18    7   18 1    
    19    7   19 1    
    20    8   20 1    
    21    9   21 1    
@<TRIPOS>SUBSTRUCTURE
     1 YHO         1 PERM              0 ****  ****    0 ROOT 
@<TRIPOS>NORMAL
@<TRIPOS>ALT_TYPE
MMFF94_ALT_TYPE_SET 
MMFF94 2 CR 3 CR 5 CR 7 CR 8 CR 11 HC 12 HC 14 HC 18 HC 19 HC 20 HC \
15 HNR+ 16 HNR+ 17 HNR+ 10 HOR 13 HOR 21 HOR 1 OR 4 OR \
9 OR 6 NR+ 
