#	Name:			1yc1_ligand
#	Creating user name:	suminyi
#	Creation time:		Sun Sep 30 06:48:44 2018

#	Modifying user name:	suminyi
#	Modification time:	Sun Sep 30 06:48:44 2018

@<TRIPOS>MOLECULE
1yc1_ligand
   42    45     1     1     0
SMALL
MMFF94_CHARGES


@<TRIPOS>ATOM
      1 C15         2.2240   35.5070   -4.3740 C.ar      1 MOL        -0.1500 
      2 C12         2.9190   36.2840   -3.4530 C.ar      1 MOL         0.0825 
      3 O17         4.2550   36.5260   -3.3050 O.3       1 MOL        -0.3625 
      4 C19         4.3940   37.3790   -2.2370 C.3       1 MOL         0.5600 
      5 O18         3.1580   37.6640   -1.7130 O.3       1 MOL        -0.3625 
      6 C16         2.2370   36.9820   -2.4570 C.ar      1 MOL         0.0825 
      7 C22         0.8510   36.9120   -2.3570 C.ar      1 MOL        -0.1500 
      8 C20         0.1620   36.1260   -3.2760 C.ar      1 MOL        -0.1500 
      9 C8          0.8380   35.4280   -4.2760 C.ar      1 MOL         0.0540 
     10 C4          0.1490   34.5980   -5.1600 C.2       1 MOL        -0.0540 
     11 C1          0.0490   34.6960   -6.5420 C.2       1 MOL        -0.3836 
     12 C7          0.6670   35.7460   -7.4670 C.2       1 MOL         1.0320 
     13 O21         0.7830   35.4750   -8.6620 O.co2     1 MOL        -0.9000 
     14 O23         1.0430   36.8370   -7.0350 O.co2     1 MOL        -0.9000 
     15 N5         -0.7540   33.7190   -6.9620 N.pl3     1 MOL         0.2996 
     16 C2         -0.6350   33.4940   -4.8430 C.2       1 MOL         0.2348 
     17 N3         -1.1390   33.0470   -5.9970 N.2       1 MOL        -0.7068 
     18 C6         -0.7130   32.9160   -3.5760 C.ar      1 MOL         0.0540 
     19 C10         0.4280   32.7190   -2.7970 C.ar      1 MOL        -0.1500 
     20 C14         0.3370   32.2030   -1.5060 C.ar      1 MOL        -0.1435 
     21 C26         1.6230   31.8700   -0.7440 C.3       1 MOL         0.1435 
     22 C27         1.9390   30.3770   -0.8750 C.3       1 MOL         0.0000 
     23 C13        -0.9120   31.9090   -0.9690 C.ar      1 MOL         0.0825 
     24 O25        -1.0080   31.6250    0.3610 O.3       1 MOL        -0.5325 
     25 C11        -2.0550   32.0720   -1.7480 C.ar      1 MOL        -0.1500 
     26 C9         -1.9510   32.5650   -3.0490 C.ar      1 MOL         0.0825 
     27 O24        -3.0640   32.6950   -3.8160 O.3       1 MOL        -0.5325 
     28 H1          2.7529   34.9722   -5.1546 H         1 MOL         0.1500 
     29 H2          4.8734   38.3106   -2.5722 H         1 MOL         0.0000 
     30 H3          5.0175   36.9024   -1.4663 H         1 MOL         0.0000 
     31 H4          0.3214   37.4557   -1.5831 H         1 MOL         0.1500 
     32 H5         -0.9179   36.0553   -3.2133 H         1 MOL         0.1500 
     33 H6         -1.0153   33.5486   -7.9436 H         1 MOL         0.2700 
     34 H7          1.4009   32.9715   -3.2029 H         1 MOL         0.1500 
     35 H8          1.4924   32.1226    0.3186 H         1 MOL         0.0000 
     36 H9          2.4553   32.4562   -1.1607 H         1 MOL         0.0000 
     37 H10         2.8636   30.1483   -0.3247 H         1 MOL         0.0000 
     38 H11         2.0717   30.1220   -1.9368 H         1 MOL         0.0000 
     39 H12         1.1088   29.7884   -0.4575 H         1 MOL         0.0000 
     40 H13        -1.9147   31.4461    0.5808 H         1 MOL         0.4500 
     41 H14        -3.0271   31.8154   -1.3427 H         1 MOL         0.1500 
     42 H15        -2.8221   33.0412   -4.6670 H         1 MOL         0.4500 
@<TRIPOS>BOND
     1    1    2 ar   
     2    1    9 ar   
     3    2    3 1    
     4    2    6 ar   
     5    3    4 1    
     6    4    5 1    
     7    5    6 1    
     8    6    7 ar   
     9    7    8 ar   
    10    8    9 ar   
    11    9   10 1    
    12   10   11 2    
    13   10   16 1    
    14   11   12 1    
    15   11   15 1    
    16   12   13 ar   
    17   12   14 ar   
    18   15   17 1    
    19   16   17 2    
    20   16   18 1    
    21   18   19 ar   
    22   18   26 ar   
    23   19   20 ar   
    24   20   21 1    
    25   20   23 ar   
    26   21   22 1    
    27   23   24 1    
    28   23   25 ar   
    29   25   26 ar   
    30   26   27 1    
    31    1   28 1    
    32    4   29 1    
    33    4   30 1    
    34    7   31 1    
    35    8   32 1    
    36   15   33 1    
    37   19   34 1    
    38   21   35 1    
    39   21   36 1    
    40   22   37 1    
    41   22   38 1    
    42   22   39 1    
    43   24   40 1    
    44   25   41 1    
    45   27   42 1    
@<TRIPOS>SUBSTRUCTURE
     1 MOL         1 PERM              0 ****  ****    0 ROOT 
@<TRIPOS>NORMAL
@<TRIPOS>ALT_TYPE
MMFF94_ALT_TYPE_SET 
MMFF94 4 CR 21 CR 22 CR 11 C5A 10 C5B 16 C5B 1 CB 2 CB 6 CB 7 CB 8 CB \
9 CB 18 CB 19 CB 20 CB 23 CB 25 CB 26 CB 12 CO2M 28 HC \
29 HC 30 HC 31 HC 32 HC 34 HC 35 HC 36 HC 37 HC 38 HC \
39 HC 41 HC 33 HPYL 40 HOCC 42 HOCC 13 O2CM 14 O2CM 3 OC=C \
5 OC=C 24 OC=C 27 OC=C 15 NPYL 17 N5A 
