#	Name:			1yc1_ligand
#	Creating user name:	suminyi
#	Creation time:		Sun Sep 30 06:51:15 2018

#	Modifying user name:	suminyi
#	Modification time:	Sun Sep 30 06:51:15 2018

@<TRIPOS>MOLECULE
1yc1_ligand
   42    45     1     1     0
SMALL
MMFF94_CHARGES


@<TRIPOS>ATOM
      1 C15         2.5250   35.8440   -4.5790 C.ar      1 MOL        -0.1500 
      2 C12         3.1420   36.5490   -3.5540 C.ar      1 MOL         0.0825 
      3 O17         4.4620   36.8940   -3.4380 O.3       1 MOL        -0.3625 
      4 C19         4.6060   37.4960   -2.1140 C.3       1 MOL         0.5600 
      5 O18         3.2600   37.6200   -1.5840 O.3       1 MOL        -0.3625 
      6 C16         2.4360   36.9800   -2.4650 C.ar      1 MOL         0.0825 
      7 C22         1.0710   36.7550   -2.3550 C.ar      1 MOL        -0.1500 
      8 C20         0.4480   35.9780   -3.3400 C.ar      1 MOL        -0.1500 
      9 C8          1.1760   35.5020   -4.4470 C.ar      1 MOL         0.0540 
     10 C4          0.5530   34.6480   -5.4400 C.2       1 MOL        -0.0540 
     11 C1          0.4220   34.9410   -6.7730 C.2       1 MOL        -0.3836 
     12 C7          0.9170   36.0240   -7.6520 C.2       1 MOL         1.0320 
     13 O21         0.4560   36.1910   -8.7640 O.co2     1 MOL        -0.9000 
     14 O23         1.7890   36.7980   -7.3070 O.co2     1 MOL        -0.9000 
     15 N5         -0.4840   34.0300   -7.2560 N.pl3     1 MOL         0.2996 
     16 C2         -0.3510   33.5810   -5.1480 C.2       1 MOL         0.2348 
     17 N3         -0.9860   33.2100   -6.2800 N.2       1 MOL        -0.7068 
     18 C6         -0.5300   33.0450   -3.8090 C.ar      1 MOL         0.0540 
     19 C10         0.5370   32.8820   -2.9130 C.ar      1 MOL        -0.1500 
     20 C14         0.3320   32.3340   -1.6390 C.ar      1 MOL        -0.1435 
     21 C26         1.5280   31.9460   -0.7810 C.3       1 MOL         0.1435 
     22 C27         1.8340   30.4460   -0.9480 C.3       1 MOL         0.0000 
     23 C13        -0.9730   32.0690   -1.2150 C.ar      1 MOL         0.0825 
     24 O25        -1.2580   31.6760    0.0540 O.3       1 MOL        -0.5325 
     25 C11        -2.0280   32.2010   -2.1030 C.ar      1 MOL        -0.1500 
     26 C9         -1.7920   32.6170   -3.4040 C.ar      1 MOL         0.0825 
     27 O24        -2.8130   32.6200   -4.2830 O.3       1 MOL        -0.5325 
     28 H1          3.0850   35.5310   -5.4430 H         1 MOL         0.1500 
     29 H2          5.0800   38.4850   -2.1890 H         1 MOL         0.0000 
     30 H3          5.1900   36.8260   -1.4650 H         1 MOL         0.0000 
     31 H4          0.5090   37.1740   -1.5230 H         1 MOL         0.1500 
     32 H5         -0.6200   35.7730   -3.2560 H         1 MOL         0.1500 
     33 H6         -0.7410   33.9270   -8.2440 H         1 MOL         0.2700 
     34 H7          1.5470   33.1220   -3.2350 H         1 MOL         0.1500 
     35 H8          1.3310   32.1510    0.2720 H         1 MOL         0.0000 
     36 H9          2.4050   32.5330   -1.0680 H         1 MOL         0.0000 
     37 H10         2.7260   30.1660   -0.3880 H         1 MOL         0.0000 
     38 H11         2.0020   30.2050   -1.9990 H         1 MOL         0.0000 
     39 H12         0.9990   29.8420   -0.5870 H         1 MOL         0.0000 
     40 H13        -2.2350   31.7050    0.1170 H         1 MOL         0.4500 
     41 H14        -3.0450   31.9540   -1.8070 H         1 MOL         0.1500 
     42 H15        -2.4510   32.9610   -5.1300 H         1 MOL         0.4500 
@<TRIPOS>BOND
     1    1    2 ar   
     2    1    9 ar   
     3    2    3 1    
     4    2    6 ar   
     5    3    4 1    
     6    4    5 1    
     7    5    6 1    
     8    6    7 ar   
     9    7    8 ar   
    10    8    9 ar   
    11    9   10 1    
    12   10   11 2    
    13   10   16 1    
    14   11   12 1    
    15   11   15 1    
    16   12   13 ar   
    17   12   14 ar   
    18   15   17 1    
    19   16   17 2    
    20   16   18 1    
    21   18   19 ar   
    22   18   26 ar   
    23   19   20 ar   
    24   20   21 1    
    25   20   23 ar   
    26   21   22 1    
    27   23   24 1    
    28   23   25 ar   
    29   25   26 ar   
    30   26   27 1    
    31    1   28 1    
    32    4   29 1    
    33    4   30 1    
    34    7   31 1    
    35    8   32 1    
    36   15   33 1    
    37   19   34 1    
    38   21   35 1    
    39   21   36 1    
    40   22   37 1    
    41   22   38 1    
    42   22   39 1    
    43   24   40 1    
    44   25   41 1    
    45   27   42 1    
@<TRIPOS>SUBSTRUCTURE
     1 MOL         1 PERM              0 ****  ****    0 ROOT 
@<TRIPOS>NORMAL
@<TRIPOS>ALT_TYPE
MMFF94_ALT_TYPE_SET 
MMFF94 4 CR 21 CR 22 CR 11 C5A 10 C5B 16 C5B 1 CB 2 CB 6 CB 7 CB 8 CB \
9 CB 18 CB 19 CB 20 CB 23 CB 25 CB 26 CB 12 CO2M 28 HC \
29 HC 30 HC 31 HC 32 HC 34 HC 35 HC 36 HC 37 HC 38 HC \
39 HC 41 HC 33 HPYL 40 HOCC 42 HOCC 13 O2CM 14 O2CM 3 OC=C \
5 OC=C 24 OC=C 27 OC=C 15 NPYL 17 N5A 
