#	Name:			4e6q_ligand
#	Creating user name:	suminyi
#	Creation time:		Sun Sep 30 06:51:00 2018

#	Modifying user name:	suminyi
#	Modification time:	Sun Sep 30 06:51:00 2018

@<TRIPOS>MOLECULE
4e6q_ligand
   47    51     1     1     0
SMALL
MMFF94_CHARGES


@<TRIPOS>ATOM
      1 C1         11.0240   26.6590    9.0650 C.3       1 MOL         0.0000 
      2 C2         10.8600   25.2660    8.4340 C.3       1 MOL         0.5030 
      3 N3         11.7820   25.0530    7.2510 N.4       1 MOL        -0.9590 
      4 C4         13.2160   25.3010    7.6590 C.3       1 MOL         0.5030 
      5 C5         13.4080   26.7210    8.2230 C.3       1 MOL         0.0000 
      6 C6         12.4930   26.8970    9.4570 C.3       1 MOL         0.2556 
      7 N7         12.6480   28.1620   10.1710 N.pl3     1 MOL         0.0476 
      8 C8         12.8540   29.4320    9.6360 C.2       1 MOL         0.0365 
      9 N9         13.0130   30.3690   10.6030 N.2       1 MOL        -0.5653 
     10 C10        12.9270   29.6660   11.7380 C.ar      1 MOL         0.2272 
     11 C11        13.0440   30.1310   13.0550 C.ar      1 MOL         0.1600 
     12 N12        12.9040   29.3000   14.1280 N.ar      1 MOL        -0.5670 
     13 C13        12.6440   28.0030   13.8620 C.ar      1 MOL         0.1054 
     14 N14        12.4850   26.9910   14.7310 N.pl3     1 MOL         0.0332 
     15 C15        12.1920   25.8230   14.0350 C.2       1 MOL        -0.3016 
     16 C16        12.1800   26.1090   12.6850 C.2       1 MOL        -0.1500 
     17 C17        12.4930   27.4970   12.5890 C.ar      1 MOL         0.0000 
     18 C18        12.6700   28.3520   11.5010 C.ar      1 MOL        -0.1516 
     19 C19        11.6270   23.6360    6.7410 C.3       1 MOL         0.6465 
     20 C20        10.2210   23.3660    6.2380 C.ar      1 MOL        -0.1435 
     21 C21         9.4210   22.4730    6.9490 C.ar      1 MOL        -0.1500 
     22 C22         8.1350   22.1740    6.5160 C.ar      1 MOL        -0.1500 
     23 C23         7.6360   22.7740    5.3660 C.ar      1 MOL        -0.1500 
     24 C24         8.4300   23.6710    4.6470 C.ar      1 MOL        -0.1500 
     25 C25         9.7180   23.9770    5.0870 C.ar      1 MOL        -0.1500 
     26 H1         10.4080   26.7350    9.9610 H         1 MOL         0.0000 
     27 H2         10.6860   27.4360    8.3730 H         1 MOL         0.0000 
     28 H3          9.8300   25.1190    8.0960 H         1 MOL         0.0000 
     29 H4         11.0910   24.4900    9.1720 H         1 MOL         0.0000 
     30 H5         11.5230   25.7270    6.5120 H         1 MOL         0.4500 
     31 H6         13.8550   25.1420    6.7860 H         1 MOL         0.0000 
     32 H7         13.4790   24.5560    8.4190 H         1 MOL         0.0000 
     33 H8         13.1790   27.4680    7.4600 H         1 MOL         0.0000 
     34 H9         14.4540   26.8580    8.5020 H         1 MOL         0.0000 
     35 H10        12.7860   26.1070   10.1500 H         1 MOL         0.0000 
     36 H11        12.8760   29.6250    8.5740 H         1 MOL         0.1500 
     37 H12        13.2080   31.1830   13.2630 H         1 MOL         0.1500 
     38 H13        12.5820   27.0910   15.7400 H         1 MOL         0.2700 
     39 H14        12.0340   24.8830   14.5540 H         1 MOL         0.1500 
     40 H15        11.9860   25.3870   11.9020 H         1 MOL         0.1500 
     41 H16        11.8610   22.9540    7.5670 H         1 MOL         0.0000 
     42 H17        12.3600   23.4570    5.9480 H         1 MOL         0.0000 
     43 H18         9.8050   21.9860    7.8400 H         1 MOL         0.1500 
     44 H19         7.5360   21.4490    7.0630 H         1 MOL         0.1500 
     45 H20         6.6350   22.5170    5.0330 H         1 MOL         0.1500 
     46 H21         8.0550   24.1190    3.7310 H         1 MOL         0.1500 
     47 H22        10.3230   24.6820    4.5220 H         1 MOL         0.1500 
@<TRIPOS>BOND
     1    1    2 1    
     2    1    6 1    
     3    2    3 1    
     4    3    4 1    
     5    3   19 1    
     6    4    5 1    
     7    5    6 1    
     8    6    7 1    
     9    7    8 1    
    10    7   18 1    
    11    8    9 2    
    12    9   10 1    
    13   10   11 ar   
    14   10   18 ar   
    15   11   12 ar   
    16   12   13 ar   
    17   13   14 1    
    18   13   17 ar   
    19   14   15 1    
    20   15   16 2    
    21   16   17 1    
    22   17   18 ar   
    23   19   20 1    
    24   20   21 ar   
    25   20   25 ar   
    26   21   22 ar   
    27   22   23 ar   
    28   23   24 ar   
    29   24   25 ar   
    30    1   26 1    
    31    1   27 1    
    32    2   28 1    
    33    2   29 1    
    34    3   30 1    
    35    4   31 1    
    36    4   32 1    
    37    5   33 1    
    38    5   34 1    
    39    6   35 1    
    40    8   36 1    
    41   11   37 1    
    42   14   38 1    
    43   15   39 1    
    44   16   40 1    
    45   19   41 1    
    46   19   42 1    
    47   21   43 1    
    48   22   44 1    
    49   23   45 1    
    50   24   46 1    
    51   25   47 1    
@<TRIPOS>SUBSTRUCTURE
     1 MOL         1 PERM              0 ****  ****    0 ROOT 
@<TRIPOS>NORMAL
@<TRIPOS>ALT_TYPE
MMFF94_ALT_TYPE_SET 
MMFF94 1 CR 2 CR 4 CR 5 CR 6 CR 19 CR 8 C5A 15 C5A 18 C5A 13 C5A 16 C5B \
10 C5B 17 C5B 11 CB 20 CB 21 CB 22 CB 23 CB 24 CB 25 CB \
26 HC 27 HC 28 HC 29 HC 31 HC 32 HC 33 HC 34 HC 35 HC \
36 HC 37 HC 39 HC 40 HC 41 HC 42 HC 43 HC 44 HC 45 HC \
46 HC 47 HC 38 HPYL 30 HNR+ 12 NPYD 7 NPYL 14 NPYL 9 N5B \
3 NR+ 
