#	Name:			4e6q_ligand
#	Creating user name:	suminyi
#	Creation time:		Sun Sep 30 06:48:57 2018

#	Modifying user name:	suminyi
#	Modification time:	Sun Sep 30 06:48:57 2018

@<TRIPOS>MOLECULE
4e6q_ligand
   47    51     1     1     0
SMALL
MMFF94_CHARGES


@<TRIPOS>ATOM
      1 C1         10.9290   26.7340    8.8250 C.3       1 MOL         0.0000 
      2 C2         10.7450   25.3240    8.2330 C.3       1 MOL         0.5030 
      3 N3         11.6810   25.0660    7.1090 N.4       1 MOL        -0.9590 
      4 C4         13.0760   25.2240    7.5300 C.3       1 MOL         0.5030 
      5 C5         13.3710   26.6530    8.0640 C.3       1 MOL         0.0000 
      6 C6         12.3990   26.8140    9.2430 C.3       1 MOL         0.2556 
      7 N7         12.6860   28.0830    9.8840 N.pl3     1 MOL         0.0476 
      8 C8         12.9380   29.2600    9.2230 C.2       1 MOL         0.0365 
      9 N9         13.1470   30.2120   10.0700 N.2       1 MOL        -0.5653 
     10 C10        13.0560   29.7260   11.3410 C.ar      1 MOL         0.2272 
     11 C11        13.1970   30.2810   12.6140 C.ar      1 MOL         0.1600 
     12 N12        13.0220   29.5710   13.6950 N.ar      1 MOL        -0.5670 
     13 C13        12.7100   28.2780   13.6700 C.ar      1 MOL         0.1054 
     14 N14        12.5130   27.3680   14.6680 N.pl3     1 MOL         0.0332 
     15 C15        12.2480   26.1380   14.0990 C.2       1 MOL        -0.3016 
     16 C16        12.2270   26.2030   12.7610 C.2       1 MOL        -0.1500 
     17 C17        12.5490   27.6070   12.4400 C.ar      1 MOL         0.0000 
     18 C18        12.7260   28.3370   11.2430 C.ar      1 MOL        -0.1516 
     19 C19        11.5170   23.6890    6.5490 C.3       1 MOL         0.6465 
     20 C20        10.0590   23.3470    6.2450 C.ar      1 MOL        -0.1435 
     21 C21         9.3630   22.4140    7.0230 C.ar      1 MOL        -0.1500 
     22 C22         8.0400   22.0880    6.7820 C.ar      1 MOL        -0.1500 
     23 C23         7.4240   22.7170    5.7130 C.ar      1 MOL        -0.1500 
     24 C24         8.0990   23.6470    4.9290 C.ar      1 MOL        -0.1500 
     25 C25         9.4200   23.9690    5.1810 C.ar      1 MOL        -0.1500 
     26 H1         10.2734   26.8732    9.6972 H         1 MOL         0.0000 
     27 H2         10.7020   27.5007    8.0695 H         1 MOL         0.0000 
     28 H3          9.7129   25.2250    7.8655 H         1 MOL         0.0000 
     29 H4         10.9257   24.5806    9.0234 H         1 MOL         0.0000 
     30 H5         11.4847   25.7348    6.3808 H         1 MOL         0.4500 
     31 H6         13.7304   25.0260    6.6683 H         1 MOL         0.0000 
     32 H7         13.2897   24.4970    8.3274 H         1 MOL         0.0000 
     33 H8         13.1750   27.4087    7.2891 H         1 MOL         0.0000 
     34 H9         14.4142   26.7368    8.4025 H         1 MOL         0.0000 
     35 H10        12.5882   26.0029    9.9615 H         1 MOL         0.0000 
     36 H11        12.9586   29.3741    8.1402 H         1 MOL         0.1500 
     37 H12        13.4586   31.3288   12.7071 H         1 MOL         0.1500 
     38 H13        12.5550   27.5659   15.6779 H         1 MOL         0.2700 
     39 H14        12.0769   25.2258   14.6687 H         1 MOL         0.1500 
     40 H15        12.0177   25.3948   12.0617 H         1 MOL         0.1500 
     41 H16        11.9039   22.9634    7.2796 H         1 MOL         0.0000 
     42 H17        12.0973   23.6163    5.6174 H         1 MOL         0.0000 
     43 H18         9.8792   21.9295    7.8439 H         1 MOL         0.1500 
     44 H19         7.5102   21.3733    7.4013 H         1 MOL         0.1500 
     45 H20         6.3920   22.4792    5.4818 H         1 MOL         0.1500 
     46 H21         7.5808   24.1273    4.1069 H         1 MOL         0.1500 
     47 H22         9.9437   24.6893    4.5630 H         1 MOL         0.1500 
@<TRIPOS>BOND
     1    1    2 1    
     2    1    6 1    
     3    2    3 1    
     4    3    4 1    
     5    3   19 1    
     6    4    5 1    
     7    5    6 1    
     8    6    7 1    
     9    7    8 1    
    10    7   18 1    
    11    8    9 2    
    12    9   10 1    
    13   10   11 ar   
    14   10   18 ar   
    15   11   12 ar   
    16   12   13 ar   
    17   13   14 1    
    18   13   17 ar   
    19   14   15 1    
    20   15   16 2    
    21   16   17 1    
    22   17   18 ar   
    23   19   20 1    
    24   20   21 ar   
    25   20   25 ar   
    26   21   22 ar   
    27   22   23 ar   
    28   23   24 ar   
    29   24   25 ar   
    30    1   26 1    
    31    1   27 1    
    32    2   28 1    
    33    2   29 1    
    34    3   30 1    
    35    4   31 1    
    36    4   32 1    
    37    5   33 1    
    38    5   34 1    
    39    6   35 1    
    40    8   36 1    
    41   11   37 1    
    42   14   38 1    
    43   15   39 1    
    44   16   40 1    
    45   19   41 1    
    46   19   42 1    
    47   21   43 1    
    48   22   44 1    
    49   23   45 1    
    50   24   46 1    
    51   25   47 1    
@<TRIPOS>SUBSTRUCTURE
     1 MOL         1 PERM              0 ****  ****    0 ROOT 
@<TRIPOS>NORMAL
@<TRIPOS>ALT_TYPE
MMFF94_ALT_TYPE_SET 
MMFF94 1 CR 2 CR 4 CR 5 CR 6 CR 19 CR 8 C5A 15 C5A 18 C5A 13 C5A 16 C5B \
10 C5B 17 C5B 11 CB 20 CB 21 CB 22 CB 23 CB 24 CB 25 CB \
26 HC 27 HC 28 HC 29 HC 31 HC 32 HC 33 HC 34 HC 35 HC \
36 HC 37 HC 39 HC 40 HC 41 HC 42 HC 43 HC 44 HC 45 HC \
46 HC 47 HC 38 HPYL 30 HNR+ 12 NPYD 7 NPYL 14 NPYL 9 N5B \
3 NR+ 
