#	Name:			2c3i_ligand
#	Creating user name:	suminyi
#	Creation time:		Sun Sep 30 06:48:53 2018

#	Modifying user name:	suminyi
#	Modification time:	Sun Sep 30 06:48:53 2018

@<TRIPOS>MOLECULE
2c3i_ligand
   41    44     1     1     0
SMALL
MMFF94_CHARGES


@<TRIPOS>ATOM
      1 CAJ        28.5410   50.6080   -2.6660 C.3       1 IYZ        -0.2000 
      2 CAK        28.2110   50.7480   -4.1470 C.3       1 IYZ        -0.2000 
      3 CAV        27.1030   50.4290   -3.1460 C.3       1 IYZ        -0.1950 
      4 CAL        26.2020   51.6250   -2.8340 C.3       1 IYZ         0.4641 
      5 NAO        27.0630   52.6920   -2.2940 N.pl3     1 IYZ        -0.8191 
      6 CAS        27.1300   52.9170   -1.0060 C.2       1 IYZ         0.4856 
      7 CAF        27.4470   54.2010   -0.6080 C.2       1 IYZ        -0.1356 
      8 CAG        27.5020   54.4500    0.7490 C.2       1 IYZ        -0.1050 
      9 NAN        26.8670   51.9210   -0.1470 N.2       1 IYZ        -0.6520 
     10 NAW        26.9220   52.1300    1.0650 N.pl3     1 IYZ         0.5052 
     11 CAU        27.2480   53.3960    1.5850 C.2       1 IYZ         0.1415 
     12 NAM        27.2170   53.3200    2.8880 N.2       1 IYZ        -0.5653 
     13 CAH        26.8950   52.0880    3.2510 C.2       1 IYZ         0.0772 
     14 CAT        26.7330   51.3480    2.1640 C.2       1 IYZ        -0.2046 
     15 CAR        26.3480   50.0310    2.1260 C.ar      1 IYZ         0.0530 
     16 CAI        26.2150   49.3220    0.9430 C.ar      1 IYZ        -0.1500 
     17 CAE        26.0300   49.4470    3.3460 C.ar      1 IYZ        -0.1500 
     18 CAC        25.5900   48.1320    3.4240 C.ar      1 IYZ        -0.1500 
     19 CAD        25.4830   47.4200    2.2460 C.ar      1 IYZ        -0.1500 
     20 CAQ        25.8030   48.0170    1.0350 C.ar      1 IYZ         0.0862 
     21 CAP        25.6390   47.1570   -0.1820 C.2       1 IYZ         0.4228 
     22 CAA        25.6130   47.7330   -1.6030 C.3       1 IYZ         0.0610 
     23 OAB        25.5090   45.9580    0.0200 O.2       1 IYZ        -0.5700 
     24 H1         28.8179   51.4955   -2.0781 H         1 IYZ         0.1000 
     25 H2         29.1140   49.7391   -2.3101 H         1 IYZ         0.1000 
     26 H3         28.5457   49.9801   -4.8599 H         1 IYZ         0.1000 
     27 H4         28.2496   51.7365   -4.6279 H         1 IYZ         0.1000 
     28 H5         26.5745   49.4647   -3.1188 H         1 IYZ         0.1000 
     29 H6         25.4431   51.3409   -2.0901 H         1 IYZ         0.0000 
     30 H7         25.7043   51.9711   -3.7518 H         1 IYZ         0.0000 
     31 H8         27.6205   53.2694   -2.9395 H         1 IYZ         0.4000 
     32 H9         27.6458   54.9862   -1.3359 H         1 IYZ         0.1500 
     33 H10        27.7368   55.4401    1.1368 H         1 IYZ         0.1500 
     34 H11        26.7817   51.7396    4.2765 H         1 IYZ         0.1500 
     35 H12        26.4279   49.7800   -0.0161 H         1 IYZ         0.1500 
     36 H13        26.1273   50.0294    4.2551 H         1 IYZ         0.1500 
     37 H14        25.3392   47.6803    4.3769 H         1 IYZ         0.1500 
     38 H15        25.1473   46.3895    2.2672 H         1 IYZ         0.1500 
     39 H16        25.4834   46.9156   -2.3276 H         1 IYZ         0.0000 
     40 H17        26.5601   48.2548   -1.8045 H         1 IYZ         0.0000 
     41 H18        24.7768   48.4416   -1.6962 H         1 IYZ         0.0000 
@<TRIPOS>BOND
     1    1    2 1    
     2    1    3 1    
     3    2    3 1    
     4    3    4 1    
     5    4    5 1    
     6    5    6 1    
     7    6    7 1    
     8    6    9 2    
     9    7    8 2    
    10    8   11 1    
    11    9   10 1    
    12   10   11 1    
    13   10   14 1    
    14   11   12 2    
    15   12   13 1    
    16   13   14 2    
    17   14   15 1    
    18   15   16 ar   
    19   15   17 ar   
    20   16   20 ar   
    21   17   18 ar   
    22   18   19 ar   
    23   19   20 ar   
    24   20   21 1    
    25   21   22 1    
    26   21   23 2    
    27    1   24 1    
    28    1   25 1    
    29    2   26 1    
    30    2   27 1    
    31    3   28 1    
    32    4   29 1    
    33    4   30 1    
    34    5   31 1    
    35    7   32 1    
    36    8   33 1    
    37   13   34 1    
    38   16   35 1    
    39   17   36 1    
    40   18   37 1    
    41   19   38 1    
    42   22   39 1    
    43   22   40 1    
    44   22   41 1    
@<TRIPOS>SUBSTRUCTURE
     1 IYZ         1 PERM              0 ****  ****    0 ROOT 
@<TRIPOS>NORMAL
@<TRIPOS>ALT_TYPE
MMFF94_ALT_TYPE_SET 
MMFF94 1 CR3R 2 CR3R 3 CR3R 4 CR 22 CR 11 C5A 14 C5A 13 C5B 15 CB 16 CB \
17 CB 18 CB 19 CB 20 CB 21 C=OR 6 C=N 7 C=C 8 C=C 24 HC \
25 HC 26 HC 27 HC 28 HC 29 HC 30 HC 32 HC 33 HC 34 HC \
35 HC 36 HC 37 HC 38 HC 39 HC 40 HC 41 HC 31 HNCN 23 O=CR \
10 NPYL 12 N5B 9 N=C 5 NC=N 
