#	Name:			2c3i_ligand
#	Creating user name:	suminyi
#	Creation time:		Sun Sep 30 06:50:57 2018

#	Modifying user name:	suminyi
#	Modification time:	Sun Sep 30 06:50:57 2018

@<TRIPOS>MOLECULE
2c3i_ligand
   41    44     1     1     0
SMALL
MMFF94_CHARGES


@<TRIPOS>ATOM
      1 CAJ        28.3420   50.4190   -3.1040 C.3       1 MOL        -0.2000 
      2 CAK        28.0870   50.8610   -4.5160 C.3       1 MOL        -0.2000 
      3 CAV        26.9290   50.5610   -3.6110 C.3       1 MOL        -0.1950 
      4 CAL        25.9700   51.6710   -3.1830 C.3       1 MOL         0.4641 
      5 NAO        26.6800   52.8510   -2.6700 N.pl3     1 MOL        -0.8191 
      6 CAS        26.9840   53.0440   -1.3640 C.2       1 MOL         0.4856 
      7 CAF        27.2890   54.3780   -0.9320 C.2       1 MOL        -0.1356 
      8 CAG        27.5220   54.6490    0.3940 C.2       1 MOL        -0.1050 
      9 NAN        26.9370   51.9980   -0.5190 N.2       1 MOL        -0.6520 
     10 NAW        27.1410   52.3130    0.7810 N.pl3     1 MOL         0.5052 
     11 CAU        27.4020   53.5440    1.2860 C.2       1 MOL         0.1415 
     12 NAM        27.3230   53.6150    2.6140 N.2       1 MOL        -0.5653 
     13 CAH        26.9500   52.3230    2.9530 C.2       1 MOL         0.0772 
     14 CAT        26.8370   51.5030    1.8400 C.2       1 MOL        -0.2046 
     15 CAR        26.3880   50.1190    1.9220 C.ar      1 MOL         0.0530 
     16 CAI        26.3100   49.2900    0.7880 C.ar      1 MOL        -0.1500 
     17 CAE        26.0020   49.5810    3.1510 C.ar      1 MOL        -0.1500 
     18 CAC        25.5690   48.2690    3.2390 C.ar      1 MOL        -0.1500 
     19 CAD        25.5380   47.4430    2.1250 C.ar      1 MOL        -0.1500 
     20 CAQ        25.8990   47.9500    0.8770 C.ar      1 MOL         0.0862 
     21 CAP        25.8140   47.0470   -0.3250 C.2       1 MOL         0.4228 
     22 CAA        26.0200   47.6230   -1.7020 C.3       1 MOL         0.0610 
     23 OAB        25.5830   45.8600   -0.1950 O.2       1 MOL        -0.5700 
     24 H1         28.7420   51.1580   -2.4180 H         1 MOL         0.1000 
     25 H2         28.7240   49.4160   -2.9480 H         1 MOL         0.1000 
     26 H3         28.2710   50.1560   -5.3220 H         1 MOL         0.1000 
     27 H4         28.2780   51.9000   -4.7690 H         1 MOL         0.1000 
     28 H5         26.3880   49.6510   -3.8570 H         1 MOL         0.1000 
     29 H6         25.2870   51.2790   -2.4230 H         1 MOL         0.0000 
     30 H7         25.3610   51.9540   -4.0500 H         1 MOL         0.0000 
     31 H8         26.5080   53.6940   -3.2040 H         1 MOL         0.4000 
     32 H9         27.2710   55.1680   -1.6730 H         1 MOL         0.1500 
     33 H10        27.6880   55.6620    0.7480 H         1 MOL         0.1500 
     34 H11        26.7510   52.1150    3.9940 H         1 MOL         0.1500 
     35 H12        26.5950   49.6780   -0.1820 H         1 MOL         0.1500 
     36 H13        26.0090   50.1710    4.0590 H         1 MOL         0.1500 
     37 H14        25.2410   47.9030    4.1940 H         1 MOL         0.1500 
     38 H15        25.1870   46.4160    2.2240 H         1 MOL         0.1500 
     39 H16        25.8210   46.8680   -2.4660 H         1 MOL         0.0000 
     40 H17        27.0440   47.9810   -1.8150 H         1 MOL         0.0000 
     41 H18        25.3340   48.4580   -1.8610 H         1 MOL         0.0000 
@<TRIPOS>BOND
     1    1    2 1    
     2    1    3 1    
     3    2    3 1    
     4    3    4 1    
     5    4    5 1    
     6    5    6 1    
     7    6    7 1    
     8    6    9 2    
     9    7    8 2    
    10    8   11 1    
    11    9   10 1    
    12   10   11 1    
    13   10   14 1    
    14   11   12 2    
    15   12   13 1    
    16   13   14 2    
    17   14   15 1    
    18   15   16 ar   
    19   15   17 ar   
    20   16   20 ar   
    21   17   18 ar   
    22   18   19 ar   
    23   19   20 ar   
    24   20   21 1    
    25   21   22 1    
    26   21   23 2    
    27    1   24 1    
    28    1   25 1    
    29    2   26 1    
    30    2   27 1    
    31    3   28 1    
    32    4   29 1    
    33    4   30 1    
    34    5   31 1    
    35    7   32 1    
    36    8   33 1    
    37   13   34 1    
    38   16   35 1    
    39   17   36 1    
    40   18   37 1    
    41   19   38 1    
    42   22   39 1    
    43   22   40 1    
    44   22   41 1    
@<TRIPOS>SUBSTRUCTURE
     1 MOL         1 PERM              0 ****  ****    0 ROOT 
@<TRIPOS>NORMAL
@<TRIPOS>ALT_TYPE
MMFF94_ALT_TYPE_SET 
MMFF94 1 CR3R 2 CR3R 3 CR3R 4 CR 22 CR 11 C5A 14 C5A 13 C5B 15 CB 16 CB \
17 CB 18 CB 19 CB 20 CB 21 C=OR 6 C=N 7 C=C 8 C=C 24 HC \
25 HC 26 HC 27 HC 28 HC 29 HC 30 HC 32 HC 33 HC 34 HC \
35 HC 36 HC 37 HC 38 HC 39 HC 40 HC 41 HC 31 HNCN 23 O=CR \
10 NPYL 12 N5B 9 N=C 5 NC=N 
