#	Name:			4e5w_ligand
#	Creating user name:	suminyi
#	Creation time:		Sun Sep 30 06:50:56 2018

#	Modifying user name:	suminyi
#	Modification time:	Sun Sep 30 06:50:56 2018

@<TRIPOS>MOLECULE
4e5w_ligand
   57    61     1     1     0
SMALL
MMFF94_CHARGES


@<TRIPOS>ATOM
      1 C7          8.7900   51.6600    1.5080 C.3       1 MOL         0.0000 
      2 C2          6.6700   49.5450    3.7500 C.3       1 MOL         0.5030 
      3 C10         6.3280   52.2230    1.6160 C.2       1 MOL         0.5690 
      4 C6          9.1550   50.2640    0.9790 C.3       1 MOL         0.0000 
      5 C1          6.4810   48.0200    3.8960 C.3       1 MOL         0.0000 
      6 C3          5.3320   50.2380    4.0920 C.3       1 MOL         0.0000 
      7 N4          7.2170   49.9500    2.3910 N.4       1 MOL        -0.9590 
      8 C5          8.5120   49.3070    1.9890 C.3       1 MOL         0.5030 
      9 C8          7.4660   51.4550    2.2800 C.3       1 MOL         0.5640 
     10 O11         5.5960   51.6220    0.8550 O.2       1 MOL        -0.5700 
     11 N12         6.1650   53.5410    1.9010 N.am      1 MOL        -0.6602 
     12 C13         5.0590   54.3260    1.3220 C.3       1 MOL         0.3001 
     13 C14         5.5980   55.5070    0.4880 C.3       1 MOL         0.0000 
     14 C15         6.5320   56.3980    1.3310 C.3       1 MOL         0.2556 
     15 C16         7.6610   55.5270    1.9390 C.3       1 MOL         0.0000 
     16 C17         7.0570   54.3620    2.7500 C.3       1 MOL         0.3001 
     17 N18         7.0130   57.5570    0.5700 N.pl3     1 MOL         0.0476 
     18 C19         8.2360   57.6950   -0.0860 C.2       1 MOL         0.0365 
     19 N20         8.4270   58.9560   -0.5590 N.2       1 MOL        -0.5653 
     20 C21         7.3050   59.5900   -0.2020 C.ar      1 MOL         0.2272 
     21 C22         6.4410   58.7680    0.4540 C.ar      1 MOL        -0.1516 
     22 C23         5.2200   59.2910    0.8720 C.ar      1 MOL         0.0000 
     23 C24         4.1260   58.7100    1.5750 C.2       1 MOL        -0.1500 
     24 C25         3.2150   59.7340    1.7410 C.2       1 MOL        -0.3016 
     25 N26         3.7330   60.8850    1.1540 N.pl3     1 MOL         0.0332 
     26 C28         4.9390   60.6170    0.6270 C.ar      1 MOL         0.1054 
     27 N29         5.7700   61.4540   -0.0330 N.ar      1 MOL        -0.5670 
     28 C30         6.9620   60.9260   -0.4310 C.ar      1 MOL         0.1600 
     29 H1          8.7000   52.3880    0.6940 H         1 MOL         0.0000 
     30 H2          9.5560   52.0250    2.1960 H         1 MOL         0.0000 
     31 H3          7.4100   49.8740    4.4850 H         1 MOL         0.0000 
     32 H4         10.2330   50.1210    0.8820 H         1 MOL         0.0000 
     33 H5          8.6930   50.1130   -0.0010 H         1 MOL         0.0000 
     34 H6          6.1640   47.7720    4.9130 H         1 MOL         0.0000 
     35 H7          7.4060   47.4850    3.6930 H         1 MOL         0.0000 
     36 H8          5.7280   47.6380    3.2090 H         1 MOL         0.0000 
     37 H9          5.4550   51.3180    4.1740 H         1 MOL         0.0000 
     38 H10         4.9450   49.8940    5.0540 H         1 MOL         0.0000 
     39 H11         4.5720   50.0560    3.3350 H         1 MOL         0.0000 
     40 H12         6.5110   49.7000    1.6340 H         1 MOL         0.4500 
     41 H13         9.1270   49.2170    2.8870 H         1 MOL         0.0000 
     42 H14         8.3040   48.3230    1.5550 H         1 MOL         0.0000 
     43 H15         7.5540   51.8480    3.2940 H         1 MOL         0.0000 
     44 H16         4.4290   54.7020    2.1360 H         1 MOL         0.0000 
     45 H17         4.4330   53.6950    0.6840 H         1 MOL         0.0000 
     46 H18         4.7660   56.1080    0.1250 H         1 MOL         0.0000 
     47 H19         6.1330   55.1270   -0.3850 H         1 MOL         0.0000 
     48 H20         5.9520   56.7870    2.1730 H         1 MOL         0.0000 
     49 H21         8.2950   56.1360    2.5870 H         1 MOL         0.0000 
     50 H22         8.2940   55.1240    1.1430 H         1 MOL         0.0000 
     51 H23         7.8690   53.7740    3.1790 H         1 MOL         0.0000 
     52 H24         6.4750   54.7670    3.5840 H         1 MOL         0.0000 
     53 H25         8.9430   56.8860   -0.1850 H         1 MOL         0.1500 
     54 H26         4.0150   57.6980    1.9530 H         1 MOL         0.1500 
     55 H27         2.2570   59.7420    2.2500 H         1 MOL         0.1500 
     56 H28         3.3020   61.8090    1.1380 H         1 MOL         0.2700 
     57 H29         7.6310   61.5880   -0.9700 H         1 MOL         0.1500 
@<TRIPOS>BOND
     1    4    1 1    
     2    1    9 1    
     3    2    5 1    
     4    2    6 1    
     5    7    2 1    
     6    9    3 1    
     7    3   10 2    
     8    3   11 am   
     9    8    4 1    
    10    7    8 1    
    11    7    9 1    
    12   11   12 1    
    13   11   16 1    
    14   12   13 1    
    15   13   14 1    
    16   14   15 1    
    17   14   17 1    
    18   15   16 1    
    19   17   18 1    
    20   17   21 1    
    21   18   19 2    
    22   19   20 1    
    23   20   21 ar   
    24   20   28 ar   
    25   21   22 ar   
    26   22   23 1    
    27   22   26 ar   
    28   23   24 2    
    29   24   25 1    
    30   25   26 1    
    31   26   27 ar   
    32   27   28 ar   
    33    1   29 1    
    34    1   30 1    
    35    2   31 1    
    36    4   32 1    
    37    4   33 1    
    38    5   34 1    
    39    5   35 1    
    40    5   36 1    
    41    6   37 1    
    42    6   38 1    
    43    6   39 1    
    44    7   40 1    
    45    8   41 1    
    46    8   42 1    
    47    9   43 1    
    48   12   44 1    
    49   12   45 1    
    50   13   46 1    
    51   13   47 1    
    52   14   48 1    
    53   15   49 1    
    54   15   50 1    
    55   16   51 1    
    56   16   52 1    
    57   18   53 1    
    58   23   54 1    
    59   24   55 1    
    60   25   56 1    
    61   28   57 1    
@<TRIPOS>SUBSTRUCTURE
     1 MOL         1 PERM              0 ****  ****    0 ROOT 
@<TRIPOS>NORMAL
@<TRIPOS>ALT_TYPE
MMFF94_ALT_TYPE_SET 
MMFF94 1 CR 2 CR 4 CR 5 CR 6 CR 8 CR 9 CR 12 CR 13 CR 14 CR 15 CR 16 CR \
18 C5A 24 C5A 21 C5A 26 C5A 23 C5B 20 C5B 22 C5B 28 CB \
3 C=ON 29 HC 30 HC 31 HC 32 HC 33 HC 34 HC 35 HC 36 HC \
37 HC 38 HC 39 HC 41 HC 42 HC 43 HC 44 HC 45 HC 46 HC \
47 HC 48 HC 49 HC 50 HC 51 HC 52 HC 53 HC 54 HC 55 HC \
57 HC 56 HPYL 40 HNR+ 10 O=CN 27 NPYD 17 NPYL 25 NPYL \
19 N5B 7 NR+ 11 NC=O 
