#	Name:			4gid_ligand
#	Creating user name:	suminyi
#	Creation time:		Sun Sep 30 06:51:00 2018

#	Modifying user name:	suminyi
#	Modification time:	Sun Sep 30 06:51:00 2018

@<TRIPOS>MOLECULE
4gid_ligand
   95    97     1     1     0
SMALL
MMFF94_CHARGES


@<TRIPOS>ATOM
      1 CBK        49.6390   -2.5530    8.0800 C.3       1 MOL         0.0000 
      2 CBL        49.0780   -3.6860    8.9680 C.3       1 MOL         0.0000 
      3 CBM        50.2360   -4.5040    9.5770 C.3       1 MOL         0.0000 
      4 CBN        48.1760   -3.1430   10.0970 C.3       1 MOL         0.3001 
      5 NBO        46.9400   -2.5230    9.5990 N.am      1 MOL        -0.7301 
      6 CBP        45.8470   -2.3370   10.3570 C.2       1 MOL         0.5690 
      7 OBV        45.7760   -2.7890   11.4840 O.2       1 MOL        -0.5700 
      8 CBG        44.7140   -1.5750    9.6840 C.3       1 MOL         0.5640 
      9 CBH        44.7380   -0.0760   10.0980 C.3       1 MOL         0.2800 
     10 CBJ        44.1760    0.1520   11.5040 C.3       1 MOL         0.0000 
     11 OBI        46.0550    0.4610   10.0710 O.3       1 MOL        -0.6800 
     12 NBF        43.3410   -2.2150    9.7940 N.4       1 MOL        -0.9060 
     13 CAX        43.1360   -3.4450    8.9510 C.3       1 MOL         0.5030 
     14 CAW        42.6530   -4.6100    9.8320 C.3       1 MOL         0.3001 
     15 CAY        42.4350   -5.8460    8.9440 C.3       1 MOL         0.1435 
     16 CAZ        41.6090   -6.9400    9.6060 C.ar      1 MOL        -0.1435 
     17 CBA        40.5190   -7.4510    8.9150 C.ar      1 MOL        -0.1500 
     18 CBB        39.7460   -8.4730    9.4540 C.ar      1 MOL        -0.1500 
     19 CBC        40.0240   -8.9530   10.7280 C.ar      1 MOL        -0.1500 
     20 CBD        41.0910   -8.4210   11.4450 C.ar      1 MOL        -0.1500 
     21 CBE        41.8980   -7.4330   10.8780 C.ar      1 MOL        -0.1500 
     22 NAV        41.4330   -4.2670   10.5830 N.am      1 MOL        -0.7301 
     23 CAT        41.3630   -3.6240   11.7610 C.2       1 MOL         0.5438 
     24 OAU        42.3430   -3.0590   12.2140 O.2       1 MOL        -0.5700 
     25 CAP        40.0310   -3.6330   12.4590 C.ar      1 MOL         0.0862 
     26 CAQ        39.0190   -4.4990   12.0470 C.ar      1 MOL        -0.1500 
     27 CAO        39.7960   -2.7910   13.5490 C.ar      1 MOL        -0.1500 
     28 CAN        38.5650   -2.7950   14.2170 C.ar      1 MOL         0.1990 
     29 NAE        38.3400   -1.9250   15.2640 N.am      1 MOL        -0.6927 
     30 CBT        39.4190   -1.6740   16.2240 C.3       1 MOL         0.3557 
     31 SAB        36.9240   -1.0450   15.5020 S.o2      1 MOL         1.3328 
     32 OAC        37.1990    0.1660   16.2220 O.2       1 MOL        -0.6500 
     33 OAD        36.1190   -0.9850   14.3200 O.2       1 MOL        -0.6500 
     34 CAA        36.0410   -2.0250   16.6360 C.3       1 MOL         0.1052 
     35 CAS        37.5770   -3.6900   13.7890 C.ar      1 MOL        -0.1500 
     36 CAR        37.7820   -4.5250   12.6870 C.ar      1 MOL         0.0862 
     37 CAL        36.6960   -5.4480   12.2050 C.2       1 MOL         0.5438 
     38 OAM        35.7640   -5.7820   12.9130 O.2       1 MOL        -0.5700 
     39 NBQ        36.8110   -5.8660   10.9340 N.am      1 MOL        -0.7301 
     40 CBR        35.7870   -6.5810   10.1810 C.3       1 MOL         0.4436 
     41 CBS        36.4440   -7.6500    9.2980 C.3       1 MOL         0.0000 
     42 CAI        34.9540   -5.6230    9.3380 C.ar      1 MOL        -0.1435 
     43 CAH        33.5920   -5.5080    9.5950 C.ar      1 MOL        -0.1500 
     44 CAG        32.7790   -4.7110    8.7910 C.ar      1 MOL        -0.1500 
     45 CAF        33.3330   -3.9780    7.7520 C.ar      1 MOL        -0.1500 
     46 CAK        34.6990   -4.0500    7.5190 C.ar      1 MOL        -0.1500 
     47 CAJ        35.5080   -4.8790    8.2930 C.ar      1 MOL        -0.1500 
     48 H1         50.2240   -2.9680    7.2550 H         1 MOL         0.0000 
     49 H2         50.2880   -1.8890    8.6550 H         1 MOL         0.0000 
     50 H3         48.8320   -1.9570    7.6520 H         1 MOL         0.0000 
     51 H4         48.4810   -4.3590    8.3480 H         1 MOL         0.0000 
     52 H5         49.8430   -5.3130   10.1970 H         1 MOL         0.0000 
     53 H6         50.8730   -3.8750   10.2020 H         1 MOL         0.0000 
     54 H7         50.8510   -4.9480    8.7900 H         1 MOL         0.0000 
     55 H8         48.7260   -2.4060   10.6920 H         1 MOL         0.0000 
     56 H9         47.9150   -3.9710   10.7630 H         1 MOL         0.0000 
     57 H10        46.9110   -2.1430    8.6560 H         1 MOL         0.3700 
     58 H11        44.9260   -1.6080    8.6230 H         1 MOL         0.0000 
     59 H12        44.1430    0.5000    9.3870 H         1 MOL         0.0000 
     60 H13        44.2750    1.2000   11.7910 H         1 MOL         0.0000 
     61 H14        44.7340   -0.4610   12.2050 H         1 MOL         0.0000 
     62 H15        43.1200   -0.1220   11.5490 H         1 MOL         0.0000 
     63 H16        46.1030    1.0760    9.3030 H         1 MOL         0.4000 
     64 H17        42.6010   -1.5220    9.4890 H         1 MOL         0.4500 
     65 H18        43.0830   -2.4300   10.7880 H         1 MOL         0.4500 
     66 H19        44.0660   -3.7040    8.4390 H         1 MOL         0.0000 
     67 H20        42.3930   -3.2060    8.1770 H         1 MOL         0.0000 
     68 H21        43.4400   -4.8480   10.5480 H         1 MOL         0.0000 
     69 H22        43.4000   -6.2520    8.6350 H         1 MOL         0.0000 
     70 H23        41.9350   -5.5250    8.0260 H         1 MOL         0.0000 
     71 H24        40.2890   -7.0400    7.9430 H         1 MOL         0.1500 
     72 H25        38.9270   -8.8920    8.8790 H         1 MOL         0.1500 
     73 H26        39.4210   -9.7510   11.1550 H         1 MOL         0.1500 
     74 H27        41.3120   -8.8010   12.4380 H         1 MOL         0.1500 
     75 H28        42.7420   -7.0410   11.4360 H         1 MOL         0.1500 
     76 H29        40.5610   -4.5780   10.1750 H         1 MOL         0.3700 
     77 H30        39.2210   -5.2220   11.2610 H         1 MOL         0.1500 
     78 H31        40.5840   -2.1040   13.8390 H         1 MOL         0.1500 
     79 H32        40.0620   -2.5540   16.3130 H         1 MOL         0.0000 
     80 H33        39.0180   -1.4460   17.2160 H         1 MOL         0.0000 
     81 H34        40.0210   -0.8250   15.8880 H         1 MOL         0.0000 
     82 H35        35.1020   -1.5130   16.8280 H         1 MOL         0.0000 
     83 H36        36.6480   -2.1030   17.5370 H         1 MOL         0.0000 
     84 H37        35.8830   -3.0030   16.1870 H         1 MOL         0.0000 
     85 H38        36.6220   -3.7420   14.2950 H         1 MOL         0.1500 
     86 H39        37.5670   -5.4780   10.3880 H         1 MOL         0.3700 
     87 H40        35.1320   -7.1020   10.8890 H         1 MOL         0.0000 
     88 H41        35.7010   -8.1560    8.6830 H         1 MOL         0.0000 
     89 H42        36.9320   -8.3940    9.9280 H         1 MOL         0.0000 
     90 H43        37.1900   -7.2060    8.6360 H         1 MOL         0.0000 
     91 H44        33.1830   -6.0600   10.4280 H         1 MOL         0.1500 
     92 H45        31.7140   -4.6640    8.9430 H         1 MOL         0.1500 
     93 H46        32.7010   -3.3560    7.1210 H         1 MOL         0.1500 
     94 H47        35.1260   -3.4640    6.7150 H         1 MOL         0.1500 
     95 H48        36.5690   -4.9460    8.0690 H         1 MOL         0.1500 
@<TRIPOS>BOND
     1    1    2 1    
     2    2    3 1    
     3    2    4 1    
     4    4    5 1    
     5    5    6 am   
     6    6    7 2    
     7    6    8 1    
     8    8    9 1    
     9    8   12 1    
    10    9   10 1    
    11    9   11 1    
    12   12   13 1    
    13   13   14 1    
    14   14   15 1    
    15   14   22 1    
    16   15   16 1    
    17   16   17 ar   
    18   16   21 ar   
    19   17   18 ar   
    20   18   19 ar   
    21   19   20 ar   
    22   20   21 ar   
    23   22   23 am   
    24   23   24 2    
    25   23   25 1    
    26   25   26 ar   
    27   25   27 ar   
    28   26   36 ar   
    29   27   28 ar   
    30   28   29 1    
    31   28   35 ar   
    32   29   30 1    
    33   29   31 am   
    34   31   32 2    
    35   31   33 2    
    36   31   34 1    
    37   35   36 ar   
    38   36   37 1    
    39   37   38 2    
    40   37   39 am   
    41   39   40 1    
    42   40   41 1    
    43   40   42 1    
    44   42   43 ar   
    45   42   47 ar   
    46   43   44 ar   
    47   44   45 ar   
    48   45   46 ar   
    49   46   47 ar   
    50    1   48 1    
    51    1   49 1    
    52    1   50 1    
    53    2   51 1    
    54    3   52 1    
    55    3   53 1    
    56    3   54 1    
    57    4   55 1    
    58    4   56 1    
    59    5   57 1    
    60    8   58 1    
    61    9   59 1    
    62   10   60 1    
    63   10   61 1    
    64   10   62 1    
    65   11   63 1    
    66   12   64 1    
    67   12   65 1    
    68   13   66 1    
    69   13   67 1    
    70   14   68 1    
    71   15   69 1    
    72   15   70 1    
    73   17   71 1    
    74   18   72 1    
    75   19   73 1    
    76   20   74 1    
    77   21   75 1    
    78   22   76 1    
    79   26   77 1    
    80   27   78 1    
    81   30   79 1    
    82   30   80 1    
    83   30   81 1    
    84   34   82 1    
    85   34   83 1    
    86   34   84 1    
    87   35   85 1    
    88   39   86 1    
    89   40   87 1    
    90   41   88 1    
    91   41   89 1    
    92   41   90 1    
    93   43   91 1    
    94   44   92 1    
    95   45   93 1    
    96   46   94 1    
    97   47   95 1    
@<TRIPOS>SUBSTRUCTURE
     1 MOL         1 PERM              0 ****  ****    0 ROOT 
@<TRIPOS>NORMAL
@<TRIPOS>ALT_TYPE
MMFF94_ALT_TYPE_SET 
MMFF94 1 CR 2 CR 3 CR 4 CR 8 CR 9 CR 10 CR 13 CR 14 CR 15 CR 30 CR 34 CR \
40 CR 41 CR 16 CB 17 CB 18 CB 19 CB 20 CB 21 CB 25 CB \
26 CB 27 CB 28 CB 35 CB 36 CB 42 CB 43 CB 44 CB 45 CB \
46 CB 47 CB 6 C=ON 23 C=ON 37 C=ON 48 HC 49 HC 50 HC \
51 HC 52 HC 53 HC 54 HC 55 HC 56 HC 58 HC 59 HC 60 HC \
61 HC 62 HC 66 HC 67 HC 68 HC 69 HC 70 HC 71 HC 72 HC \
73 HC 74 HC 75 HC 77 HC 78 HC 79 HC 80 HC 81 HC 82 HC \
83 HC 84 HC 85 HC 87 HC 88 HC 89 HC 90 HC 91 HC 92 HC \
93 HC 94 HC 95 HC 57 HNCO 76 HNCO 86 HNCO 64 HNR+ 65 HNR+ \
63 HOR 7 O=CN 24 O=CN 38 O=CN 32 O2S 33 O2S 11 OR 12 NR+ \
29 NSO2 5 NC=O 22 NC=O 39 NC=O 31 SO2N 
