#	Name:			4de2_ligand
#	Creating user name:	suminyi
#	Creation time:		Sun Sep 30 06:50:57 2018

#	Modifying user name:	suminyi
#	Modification time:	Sun Sep 30 06:50:57 2018

@<TRIPOS>MOLECULE
4de2_ligand
   43    45     1     1     0
SMALL
MMFF94_CHARGES


@<TRIPOS>ATOM
      1 O14        -9.3950   55.9140   13.5200 O.2       1 MOL        -0.5700 
      2 C13        -8.8810   56.0740   12.4270 C.2       1 MOL         0.5438 
      3 C15        -9.5060   56.9870   11.4150 C.ar      1 MOL         0.0862 
      4 C16        -9.1120   57.0350   10.0680 C.ar      1 MOL        -0.1500 
      5 C17        -9.7780   57.8760    9.1800 C.ar      1 MOL        -0.1500 
      6 C18       -10.8030   58.6970    9.6330 C.ar      1 MOL        -0.1500 
      7 C19       -11.1770   58.6870   10.9700 C.ar      1 MOL        -0.1435 
      8 C21       -12.2880   59.5940   11.4340 C.3       1 MOL         0.6465 
      9 N22       -13.6060   59.0920   10.9020 N.4       1 MOL        -0.9590 
     10 C23       -13.9330   57.7240   11.4810 C.3       1 MOL         0.5030 
     11 C24       -14.7220   60.0850   11.1570 C.3       1 MOL         0.5030 
     12 C20       -10.5440   57.8170   11.8480 C.ar      1 MOL        -0.1500 
     13 N12        -7.7530   55.4400   12.0600 N.am      1 MOL        -0.5470 
     14 C10        -6.9190   54.5870   12.8390 C.ar      1 MOL         0.1170 
     15 C11        -5.5630   54.5350   12.5280 C.ar      1 MOL        -0.1500 
     16 C6         -4.7020   53.6880   13.2350 C.ar      1 MOL         0.0540 
     17 C7         -5.2140   52.9340   14.2980 C.ar      1 MOL        -0.1500 
     18 C8         -6.5590   53.0100   14.6270 C.ar      1 MOL        -0.1500 
     19 C9         -7.4190   53.7940   13.8710 C.ar      1 MOL        -0.1500 
     20 C2         -3.3160   53.5660   12.8470 C.2       1 MOL         0.4620 
     21 N1         -2.7150   54.2800   11.9030 N.2       1 MOL        -0.7068 
     22 N5         -1.4860   53.7290   11.9200 N.pl3     1 MOL         0.5660 
     23 N4         -1.3060   52.7630   12.8440 N.2       1 MOL        -0.4180 
     24 N3         -2.4670   52.6680   13.4520 N.2       1 MOL        -0.2272 
     25 H1         -8.3170   56.4050    9.6750 H         1 MOL         0.1500 
     26 H2         -9.5090   57.8990    8.1210 H         1 MOL         0.1500 
     27 H3        -11.3180   59.3450    8.9320 H         1 MOL         0.1500 
     28 H4        -12.1190   60.6020   11.0400 H         1 MOL         0.0000 
     29 H5        -12.3260   59.6330   12.5280 H         1 MOL         0.0000 
     30 H6        -13.4540   59.0010    9.8620 H         1 MOL         0.4500 
     31 H7        -14.8790   57.3700   11.0630 H         1 MOL         0.0000 
     32 H8        -14.0050   57.8030   12.5700 H         1 MOL         0.0000 
     33 H9        -13.1270   57.0330   11.2140 H         1 MOL         0.0000 
     34 H10       -14.4760   61.0290   10.6610 H         1 MOL         0.0000 
     35 H11       -14.8230   60.2380   12.2350 H         1 MOL         0.0000 
     36 H12       -15.6540   59.6860   10.7460 H         1 MOL         0.0000 
     37 H13       -10.8190   57.8220   12.8980 H         1 MOL         0.1500 
     38 H14        -7.3500   55.7280   11.1870 H         1 MOL         0.3700 
     39 H15        -5.1830   55.1420   11.7070 H         1 MOL         0.1500 
     40 H16        -4.5850   52.2570   14.8680 H         1 MOL         0.1500 
     41 H17        -6.9440   52.4350   15.4630 H         1 MOL         0.1500 
     42 H18        -8.4810   53.7760   14.0970 H         1 MOL         0.1500 
     43 H19        -0.7480   54.0180   11.2860 H         1 MOL         0.2700 
@<TRIPOS>BOND
     1    1    2 2    
     2    2    3 1    
     3    2   13 am   
     4    3    4 ar   
     5    3   12 ar   
     6    4    5 ar   
     7    5    6 ar   
     8    6    7 ar   
     9    7    8 1    
    10    7   12 ar   
    11    8    9 1    
    12    9   10 1    
    13    9   11 1    
    14   13   14 1    
    15   14   15 ar   
    16   14   19 ar   
    17   15   16 ar   
    18   16   17 ar   
    19   16   20 1    
    20   17   18 ar   
    21   18   19 ar   
    22   20   21 2    
    23   20   24 1    
    24   21   22 1    
    25   22   23 1    
    26   23   24 2    
    27    4   25 1    
    28    5   26 1    
    29    6   27 1    
    30    8   28 1    
    31    8   29 1    
    32    9   30 1    
    33   10   31 1    
    34   10   32 1    
    35   10   33 1    
    36   11   34 1    
    37   11   35 1    
    38   11   36 1    
    39   12   37 1    
    40   13   38 1    
    41   15   39 1    
    42   17   40 1    
    43   18   41 1    
    44   19   42 1    
    45   22   43 1    
@<TRIPOS>SUBSTRUCTURE
     1 MOL         1 PERM              0 ****  ****    0 ROOT 
@<TRIPOS>NORMAL
@<TRIPOS>ALT_TYPE
MMFF94_ALT_TYPE_SET 
MMFF94 8 CR 10 CR 11 CR 20 C5B 3 CB 4 CB 5 CB 6 CB 7 CB 12 CB 14 CB \
15 CB 16 CB 17 CB 18 CB 19 CB 2 C=ON 25 HC 26 HC 27 HC \
28 HC 29 HC 31 HC 32 HC 33 HC 34 HC 35 HC 36 HC 37 HC \
39 HC 40 HC 41 HC 42 HC 43 HPYL 38 HNCC 30 HNR+ 1 O=CN \
22 NPYL 21 N5A 23 N5A 24 N5B 9 NR+ 13 NC=O 
