#	Name:			1h23_ligand
#	Creating user name:	suminyi
#	Creation time:		Sun Sep 30 06:50:59 2018

#	Modifying user name:	suminyi
#	Modification time:	Sun Sep 30 06:50:59 2018

@<TRIPOS>MOLECULE
1h23_ligand
   84    87     1     1     0
SMALL
MMFF94_CHARGES


@<TRIPOS>ATOM
      1 C1          4.2980   59.4170   71.7320 C.2       1 MOL         0.6156 
      2 N2          3.4970   58.3720   71.9360 N.am      1 MOL        -0.5390 
      3 O7          4.9900   59.4530   70.7350 O.2       1 MOL        -0.5700 
      4 C4          2.5080   59.2200   73.9200 C.2       1 MOL        -0.1382 
      5 C5          3.3800   60.3690   73.8400 C.2       1 MOL        -0.1500 
      6 C14         0.4690   57.2070   73.8000 C.3       1 MOL         0.0000 
      7 N17         0.6450   60.3990   75.0540 N.4       1 MOL        -0.9060 
      8 C24        -0.2580   60.4800   73.8440 C.3       1 MOL         0.5030 
      9 C6          4.2380   60.4410   72.7670 C.2       1 MOL        -0.1356 
     10 C9          1.7980   56.9430   73.0670 C.3       1 MOL         0.1382 
     11 C10         1.5330   59.1810   75.0700 C.3       1 MOL         0.6412 
     12 C13         0.7590   57.8450   75.1740 C.3       1 MOL         0.0000 
     13 C63        -0.8120   61.8970   73.6070 C.3       1 MOL         0.0000 
     14 C29         1.0880   68.3250   61.0540 C.2       1 MOL         0.6156 
     15 C3          2.6050   58.2110   72.9740 C.2       1 MOL        -0.0292 
     16 N30         2.4200   68.3930   61.0550 N.am      1 MOL        -0.5390 
     17 C31         3.2520   68.4570   62.1520 C.2       1 MOL        -0.0292 
     18 C32         2.6750   68.4050   63.4150 C.2       1 MOL        -0.1382 
     19 C33         1.2340   68.3160   63.5400 C.2       1 MOL        -0.1500 
     20 C34         0.4920   68.2880   62.3850 C.2       1 MOL        -0.1356 
     21 O35         0.4960   68.2420   60.0000 O.2       1 MOL        -0.5700 
     22 C36         4.7450   68.5250   61.9280 C.3       1 MOL         0.1382 
     23 C37         3.5140   68.5880   64.6600 C.3       1 MOL         0.6412 
     24 C38         4.9820   68.1900   64.4150 C.3       1 MOL         0.0000 
     25 C39         5.5190   68.9380   63.1910 C.3       1 MOL         0.0000 
     26 N40         2.9360   67.9520   65.8930 N.4       1 MOL        -0.9060 
     27 C41         2.9710   66.4360   65.8750 C.3       1 MOL         0.5030 
     28 C64        -0.5590   62.3340   72.1530 C.3       1 MOL         0.0000 
     29 C65         0.9450   62.4930   71.8350 C.3       1 MOL         0.0000 
     30 C66         1.1630   62.4460   70.3140 C.3       1 MOL         0.0000 
     31 C67         2.6420   62.5590   69.9050 C.3       1 MOL         0.0000 
     32 C68         3.1920   63.9790   70.1310 C.3       1 MOL         0.0000 
     33 C69         4.5620   64.1390   69.4430 C.3       1 MOL         0.0000 
     34 C70         4.9500   65.6130   69.1980 C.3       1 MOL         0.0000 
     35 C71         4.0390   66.3780   68.2010 C.3       1 MOL         0.0000 
     36 C72         4.0800   65.8200   66.7570 C.3       1 MOL         0.0000 
     37 H1          3.5860   57.6280   71.2740 H         1 MOL         0.3700 
     38 H2          3.3460   61.1370   74.6090 H         1 MOL         0.1500 
     39 H3         -0.1690   57.8530   73.1930 H         1 MOL         0.0000 
     40 H4         -0.0660   56.2630   73.9360 H         1 MOL         0.0000 
     41 H5          1.2740   61.2200   75.0580 H         1 MOL         0.4500 
     42 H6          0.0990   60.4570   75.9300 H         1 MOL         0.4500 
     43 H7         -1.0750   59.7600   73.9580 H         1 MOL         0.0000 
     44 H8          0.3340   60.1700   72.9770 H         1 MOL         0.0000 
     45 H9          4.9290   61.2620   72.6290 H         1 MOL         0.1500 
     46 H10         2.3780   56.1870   73.6040 H         1 MOL         0.0000 
     47 H11         1.5920   56.5400   72.0730 H         1 MOL         0.0000 
     48 H12         2.1280   59.2710   75.9870 H         1 MOL         0.0000 
     49 H13        -0.1720   57.9830   75.7290 H         1 MOL         0.0000 
     50 H14         1.3670   57.1450   75.7540 H         1 MOL         0.0000 
     51 H15        -0.3620   62.6260   74.2860 H         1 MOL         0.0000 
     52 H16        -1.8880   61.8990   73.7990 H         1 MOL         0.0000 
     53 H17         2.8370   68.4320   60.1420 H         1 MOL         0.3700 
     54 H18         0.7510   68.2930   64.5100 H         1 MOL         0.1500 
     55 H19        -0.5900   68.2170   62.4010 H         1 MOL         0.1500 
     56 H20         4.9910   69.2290   61.1290 H         1 MOL         0.0000 
     57 H21         5.1090   67.5470   61.6000 H         1 MOL         0.0000 
     58 H22         3.5130   69.6650   64.8640 H         1 MOL         0.0000 
     59 H23         5.0720   67.1170   64.2340 H         1 MOL         0.0000 
     60 H24         5.5940   68.4390   65.2820 H         1 MOL         0.0000 
     61 H25         5.4400   70.0170   63.3420 H         1 MOL         0.0000 
     62 H26         6.5780   68.7040   63.0470 H         1 MOL         0.0000 
     63 H27         3.4530   68.3020   66.7180 H         1 MOL         0.4500 
     64 H28         1.9680   68.3020   65.9910 H         1 MOL         0.4500 
     65 H29         2.0000   66.0760   66.2290 H         1 MOL         0.0000 
     66 H30         3.0890   66.1150   64.8340 H         1 MOL         0.0000 
     67 H31        -1.0590   63.2860   71.9620 H         1 MOL         0.0000 
     68 H32        -1.0130   61.5990   71.4860 H         1 MOL         0.0000 
     69 H33         1.5300   61.6930   72.2860 H         1 MOL         0.0000 
     70 H34         1.3030   63.4390   72.2490 H         1 MOL         0.0000 
     71 H35         0.5750   63.2330   69.8360 H         1 MOL         0.0000 
     72 H36         0.7910   61.4950   69.9400 H         1 MOL         0.0000 
     73 H37         2.7070   62.3150   68.8410 H         1 MOL         0.0000 
     74 H38         3.2480   61.8250   70.4400 H         1 MOL         0.0000 
     75 H39         3.2890   64.1930   71.1970 H         1 MOL         0.0000 
     76 H40         2.4710   64.6880   69.7260 H         1 MOL         0.0000 
     77 H41         4.5700   63.6040   68.4960 H         1 MOL         0.0000 
     78 H42         5.3250   63.6710   70.0690 H         1 MOL         0.0000 
     79 H43         5.9750   65.6370   68.8270 H         1 MOL         0.0000 
     80 H44         4.9430   66.1340   70.1580 H         1 MOL         0.0000 
     81 H45         4.3720   67.4170   68.1850 H         1 MOL         0.0000 
     82 H46         3.0120   66.3980   68.5660 H         1 MOL         0.0000 
     83 H47         3.9320   64.7390   66.7560 H         1 MOL         0.0000 
     84 H48         5.0680   66.0040   66.3270 H         1 MOL         0.0000 
@<TRIPOS>BOND
     1    1    9 1    
     2    1    3 2    
     3    1    2 am   
     4    2   15 1    
     5   15   10 1    
     6   15    4 2    
     7    4   11 1    
     8    4    5 1    
     9    5    9 2    
    10   11    7 1    
    11   11   12 1    
    12   12    6 1    
    13    6   10 1    
    14    7    8 1    
    15    8   13 1    
    16   13   28 1    
    17   28   29 1    
    18   29   30 1    
    19   30   31 1    
    20   31   32 1    
    21   32   33 1    
    22   33   34 1    
    23   34   35 1    
    24   35   36 1    
    25   36   27 1    
    26   27   26 1    
    27   26   23 1    
    28   23   24 1    
    29   23   18 1    
    30   18   19 1    
    31   18   17 2    
    32   17   22 1    
    33   17   16 1    
    34   16   14 am   
    35   14   20 1    
    36   14   21 2    
    37   20   19 2    
    38   22   25 1    
    39   25   24 1    
    40    2   37 1    
    41    5   38 1    
    42    6   39 1    
    43    6   40 1    
    44    7   41 1    
    45    7   42 1    
    46    8   43 1    
    47    8   44 1    
    48    9   45 1    
    49   10   46 1    
    50   10   47 1    
    51   11   48 1    
    52   12   49 1    
    53   12   50 1    
    54   13   51 1    
    55   13   52 1    
    56   16   53 1    
    57   19   54 1    
    58   20   55 1    
    59   22   56 1    
    60   22   57 1    
    61   23   58 1    
    62   24   59 1    
    63   24   60 1    
    64   25   61 1    
    65   25   62 1    
    66   26   63 1    
    67   26   64 1    
    68   27   65 1    
    69   27   66 1    
    70   28   67 1    
    71   28   68 1    
    72   29   69 1    
    73   29   70 1    
    74   30   71 1    
    75   30   72 1    
    76   31   73 1    
    77   31   74 1    
    78   32   75 1    
    79   32   76 1    
    80   33   77 1    
    81   33   78 1    
    82   34   79 1    
    83   34   80 1    
    84   35   81 1    
    85   35   82 1    
    86   36   83 1    
    87   36   84 1    
@<TRIPOS>SUBSTRUCTURE
     1 MOL         1 PERM              0 ****  ****    0 ROOT 
@<TRIPOS>NORMAL
@<TRIPOS>ALT_TYPE
MMFF94_ALT_TYPE_SET 
MMFF94 6 CR 8 CR 10 CR 11 CR 12 CR 13 CR 22 CR 23 CR 24 CR 25 CR 27 CR \
28 CR 29 CR 30 CR 31 CR 32 CR 33 CR 34 CR 35 CR 36 CR \
1 C=ON 14 C=ON 4 C=C 5 C=C 9 C=C 15 C=C 17 C=C 18 C=C \
19 C=C 20 C=C 38 HC 39 HC 40 HC 43 HC 44 HC 45 HC 46 HC \
47 HC 48 HC 49 HC 50 HC 51 HC 52 HC 54 HC 55 HC 56 HC \
57 HC 58 HC 59 HC 60 HC 61 HC 62 HC 65 HC 66 HC 67 HC \
68 HC 69 HC 70 HC 71 HC 72 HC 73 HC 74 HC 75 HC 76 HC \
77 HC 78 HC 79 HC 80 HC 81 HC 82 HC 83 HC 84 HC 37 HNCC \
53 HNCC 41 HNR+ 42 HNR+ 63 HNR+ 64 HNR+ 3 O=CN 21 O=CN \
7 NR+ 26 NR+ 2 NC=O 16 NC=O 
