#	Name:			2x00_ligand
#	Creating user name:	suminyi
#	Creation time:		Sun Sep 30 06:51:07 2018

#	Modifying user name:	suminyi
#	Modification time:	Sun Sep 30 06:51:07 2018

@<TRIPOS>MOLECULE
2x00_ligand
   84    88     1     1     0
SMALL
MMFF94_CHARGES


@<TRIPOS>ATOM
      1 O6          9.1510   25.0160  -10.8900 O.2       1 MOL        -0.5700 
      2 C5          8.0060   24.8460  -10.5210 C.2       1 MOL         0.6590 
      3 O1          7.4750   25.2720   -9.3600 O.3       1 MOL        -0.4300 
      4 C2          6.0410   25.0820   -9.3380 C.3       1 MOL         0.4182 
      5 C3          5.8250   23.9010  -10.3000 C.3       1 MOL         0.0000 
      6 C4          6.9630   24.0980  -11.3130 C.3       1 MOL         0.0610 
      7 C7          7.4980   22.7640  -11.8800 C.3       1 MOL         0.0000 
      8 C8          5.5120   24.9060   -7.9100 C.2       1 MOL        -0.2764 
      9 C13         4.5290   25.6520   -7.3810 C.2       1 MOL        -0.2764 
     10 C14         3.6890   26.6410   -8.1850 C.3       1 MOL         0.1382 
     11 C12         4.0820   25.5450   -5.9130 C.3       1 MOL         0.2764 
     12 C27         5.0850   24.7650   -4.9840 C.3       1 MOL         0.0610 
     13 C10         5.4930   23.4890   -5.7730 C.3       1 MOL         0.0000 
     14 C9          6.2310   23.8440   -7.0850 C.3       1 MOL         0.1382 
     15 C15         3.7480   26.9200   -5.3360 C.2       1 MOL        -0.2882 
     16 C16         2.5710   27.4100   -4.9330 C.2       1 MOL        -0.2764 
     17 C19         1.2340   26.6780   -4.9880 C.3       1 MOL         0.1382 
     18 C17         2.4910   28.8740   -4.5100 C.3       1 MOL         0.4182 
     19 O20         1.8640   29.6220   -5.5490 O.3       1 MOL        -0.6800 
     20 C18         1.7270   29.1910   -3.2030 C.3       1 MOL         0.0000 
     21 C21         2.5610   29.0070   -1.9080 C.3       1 MOL         0.0000 
     22 C43         2.5610   27.5760   -1.3540 C.3       1 MOL         0.2800 
     23 C47         3.1910   27.4770    0.0460 C.3       1 MOL         0.0000 
     24 C48         2.1620   26.7470    0.9250 C.3       1 MOL         0.0000 
     25 C49         1.4800   27.7220    1.9130 C.3       1 MOL         0.0000 
     26 O43         1.1900   27.1270   -1.1670 O.3       1 MOL        -0.5600 
     27 C37         1.1390   26.1740   -0.0800 C.3       1 MOL         0.4182 
     28 C36         1.4950   24.7690   -0.5660 C.2       1 MOL        -0.2764 
     29 C38         1.2920   23.6910    0.4780 C.3       1 MOL         0.1382 
     30 C35         1.9040   24.5210   -1.8120 C.2       1 MOL        -0.2882 
     31 C34         2.4320   23.2240   -2.3670 C.3       1 MOL         0.1382 
     32 C33         3.1920   23.4600   -3.6980 C.3       1 MOL         0.0610 
     33 C32         4.4120   24.3880   -3.6360 C.2       1 MOL         0.3280 
     34 N31         4.8170   24.8090   -2.4800 N.2       1 MOL        -0.6960 
     35 C30         6.1370   25.4490   -2.2820 C.3       1 MOL         0.2460 
     36 C46         6.4120   26.4050   -3.4400 C.3       1 MOL         0.0000 
     37 C28         6.4040   25.5870   -4.7420 C.3       1 MOL         0.0000 
     38 H1          5.6280   25.9800   -9.8020 H         1 MOL         0.0000 
     39 H2          4.8380   23.9170  -10.7670 H         1 MOL         0.0000 
     40 H3          5.9510   22.9500   -9.7860 H         1 MOL         0.0000 
     41 H4          6.6330   24.7500  -12.1240 H         1 MOL         0.0000 
     42 H5          8.3510   22.9430  -12.5390 H         1 MOL         0.0000 
     43 H6          6.7230   22.2620  -12.4590 H         1 MOL         0.0000 
     44 H7          7.8250   22.0990  -11.0760 H         1 MOL         0.0000 
     45 H8          3.7090   26.4660   -9.2590 H         1 MOL         0.0000 
     46 H9          4.0090   27.6660   -7.9900 H         1 MOL         0.0000 
     47 H10         2.6380   26.5730   -7.8920 H         1 MOL         0.0000 
     48 H11         3.1710   24.9650   -5.9830 H         1 MOL         0.0000 
     49 H12         4.6080   22.8990   -6.0220 H         1 MOL         0.0000 
     50 H13         6.1340   22.8530   -5.1560 H         1 MOL         0.0000 
     51 H14         7.2410   24.1940   -6.8680 H         1 MOL         0.0000 
     52 H15         6.3580   22.9220   -7.6480 H         1 MOL         0.0000 
     53 H16         4.6000   27.5920   -5.3260 H         1 MOL         0.1500 
     54 H17         1.2920   25.6890   -5.4360 H         1 MOL         0.0000 
     55 H18         0.5150   27.2560   -5.5730 H         1 MOL         0.0000 
     56 H19         0.8110   26.5620   -3.9900 H         1 MOL         0.0000 
     57 H20         3.5060   29.2650   -4.4020 H         1 MOL         0.0000 
     58 H21         2.3090   30.4850   -5.5670 H         1 MOL         0.4000 
     59 H22         0.7850   28.6470   -3.1450 H         1 MOL         0.0000 
     60 H23         1.4430   30.2420   -3.2460 H         1 MOL         0.0000 
     61 H24         2.1300   29.6350   -1.1280 H         1 MOL         0.0000 
     62 H25         3.5880   29.3470   -2.0620 H         1 MOL         0.0000 
     63 H26         3.1020   26.9190   -2.0370 H         1 MOL         0.0000 
     64 H27         3.4100   28.4640    0.4460 H         1 MOL         0.0000 
     65 H28         4.1210   26.9070   -0.0120 H         1 MOL         0.0000 
     66 H29         2.6590   25.9600    1.4940 H         1 MOL         0.0000 
     67 H30         0.6820   27.2170    2.4620 H         1 MOL         0.0000 
     68 H31         1.0440   28.5740    1.3860 H         1 MOL         0.0000 
     69 H32         2.2040   28.1000    2.6390 H         1 MOL         0.0000 
     70 H33         0.1310   26.1710    0.3410 H         1 MOL         0.0000 
     71 H34         1.6160   22.7060    0.1400 H         1 MOL         0.0000 
     72 H35         0.2360   23.6270    0.7500 H         1 MOL         0.0000 
     73 H36         1.8400   23.9380    1.3840 H         1 MOL         0.0000 
     74 H37         1.9550   25.3240   -2.5320 H         1 MOL         0.1500 
     75 H38         1.6010   22.5470   -2.5620 H         1 MOL         0.0000 
     76 H39         3.0990   22.7480   -1.6490 H         1 MOL         0.0000 
     77 H40         2.4580   23.8110   -4.4170 H         1 MOL         0.0000 
     78 H41         3.5330   22.4940   -4.0510 H         1 MOL         0.0000 
     79 H42         6.9100   24.6750   -2.2390 H         1 MOL         0.0000 
     80 H43         6.1410   25.9910   -1.3330 H         1 MOL         0.0000 
     81 H44         7.3930   26.8670   -3.3050 H         1 MOL         0.0000 
     82 H45         5.6690   27.2020   -3.4440 H         1 MOL         0.0000 
     83 H46         6.6200   26.2360   -5.5880 H         1 MOL         0.0000 
     84 H47         7.2510   24.9010   -4.6640 H         1 MOL         0.0000 
@<TRIPOS>BOND
     1    1    2 2    
     2    2    3 1    
     3    2    6 1    
     4    3    4 1    
     5    4    5 1    
     6    4    8 1    
     7    5    6 1    
     8    6    7 1    
     9    8    9 2    
    10    8   14 1    
    11    9   10 1    
    12    9   11 1    
    13   11   12 1    
    14   11   15 1    
    15   12   13 1    
    16   12   33 1    
    17   12   37 1    
    18   13   14 1    
    19   15   16 2    
    20   16   17 1    
    21   16   18 1    
    22   18   19 1    
    23   18   20 1    
    24   20   21 1    
    25   21   22 1    
    26   22   23 1    
    27   22   26 1    
    28   23   24 1    
    29   24   25 1    
    30   24   27 1    
    31   26   27 1    
    32   27   28 1    
    33   28   29 1    
    34   28   30 2    
    35   30   31 1    
    36   31   32 1    
    37   32   33 1    
    38   33   34 2    
    39   34   35 1    
    40   35   36 1    
    41   36   37 1    
    42    4   38 1    
    43    5   39 1    
    44    5   40 1    
    45    6   41 1    
    46    7   42 1    
    47    7   43 1    
    48    7   44 1    
    49   10   45 1    
    50   10   46 1    
    51   10   47 1    
    52   11   48 1    
    53   13   49 1    
    54   13   50 1    
    55   14   51 1    
    56   14   52 1    
    57   15   53 1    
    58   17   54 1    
    59   17   55 1    
    60   17   56 1    
    61   18   57 1    
    62   19   58 1    
    63   20   59 1    
    64   20   60 1    
    65   21   61 1    
    66   21   62 1    
    67   22   63 1    
    68   23   64 1    
    69   23   65 1    
    70   24   66 1    
    71   25   67 1    
    72   25   68 1    
    73   25   69 1    
    74   27   70 1    
    75   29   71 1    
    76   29   72 1    
    77   29   73 1    
    78   30   74 1    
    79   31   75 1    
    80   31   76 1    
    81   32   77 1    
    82   32   78 1    
    83   35   79 1    
    84   35   80 1    
    85   36   81 1    
    86   36   82 1    
    87   37   83 1    
    88   37   84 1    
@<TRIPOS>SUBSTRUCTURE
     1 MOL         1 PERM              0 ****  ****    0 ROOT 
@<TRIPOS>NORMAL
@<TRIPOS>ALT_TYPE
MMFF94_ALT_TYPE_SET 
MMFF94 4 CR 5 CR 6 CR 7 CR 10 CR 11 CR 12 CR 13 CR 14 CR 17 CR 18 CR \
20 CR 21 CR 22 CR 23 CR 24 CR 25 CR 27 CR 29 CR 31 CR \
32 CR 35 CR 36 CR 37 CR 2 COO 33 C=N 8 C=C 9 C=C 15 C=C \
16 C=C 28 C=C 30 C=C 38 HC 39 HC 40 HC 41 HC 42 HC 43 HC \
44 HC 45 HC 46 HC 47 HC 48 HC 49 HC 50 HC 51 HC 52 HC \
53 HC 54 HC 55 HC 56 HC 57 HC 59 HC 60 HC 61 HC 62 HC \
63 HC 64 HC 65 HC 66 HC 67 HC 68 HC 69 HC 70 HC 71 HC \
72 HC 73 HC 74 HC 75 HC 76 HC 77 HC 78 HC 79 HC 80 HC \
81 HC 82 HC 83 HC 84 HC 58 HOR 1 O=CO 3 OC=O 19 OR 26 OR \
34 N=C 
