#	Name:			2x00_ligand
#	Creating user name:	suminyi
#	Creation time:		Sun Sep 30 06:49:09 2018

#	Modifying user name:	suminyi
#	Modification time:	Sun Sep 30 06:49:09 2018

@<TRIPOS>MOLECULE
2x00_ligand
   84    88     1     1     0
SMALL
MMFF94_CHARGES


@<TRIPOS>ATOM
      1 O6          9.0160   24.9540  -10.4650 O.2       1 GYN        -0.5700 
      2 C5          7.8360   24.7870  -10.2270 C.2       1 GYN         0.6590 
      3 O1          7.1590   25.4890   -9.1610 O.3       1 GYN        -0.4300 
      4 C2          5.7950   25.0690   -9.2170 C.3       1 GYN         0.4182 
      5 C3          5.7130   23.8380  -10.1300 C.3       1 GYN         0.0000 
      6 C4          6.9610   23.8710  -11.0040 C.3       1 GYN         0.0610 
      7 C7          7.6190   22.5170  -11.2090 C.3       1 GYN         0.0000 
      8 C8          5.2970   24.8030   -7.8230 C.2       1 GYN        -0.2764 
      9 C13         4.3300   25.5800   -7.2940 C.2       1 GYN        -0.2764 
     10 C14         3.6030   26.5720   -8.1770 C.3       1 GYN         0.1382 
     11 C12         3.9290   25.5310   -5.8340 C.3       1 GYN         0.2764 
     12 C27         4.9700   24.8090   -4.9650 C.3       1 GYN         0.0610 
     13 C10         5.3610   23.5100   -5.6710 C.3       1 GYN         0.0000 
     14 C9          5.9540   23.6800   -7.0610 C.3       1 GYN         0.1382 
     15 C15         3.6900   26.9470   -5.3330 C.2       1 GYN        -0.2882 
     16 C16         2.5050   27.4710   -4.9480 C.2       1 GYN        -0.2764 
     17 C19         1.2120   26.6910   -4.9790 C.3       1 GYN         0.1382 
     18 C17         2.4980   28.9090   -4.4870 C.3       1 GYN         0.4182 
     19 O20         1.6980   29.6680   -5.4060 O.3       1 GYN        -0.6800 
     20 C18         1.8910   29.0410   -3.0950 C.3       1 GYN         0.0000 
     21 C21         2.8930   28.8780   -1.9670 C.3       1 GYN         0.0000 
     22 C43         2.6620   27.6040   -1.1680 C.3       1 GYN         0.2800 
     23 C47         3.2590   27.6400    0.2350 C.3       1 GYN         0.0000 
     24 C48         2.3320   26.7750    1.0730 C.3       1 GYN         0.0000 
     25 C49         1.7070   27.6100    2.1920 C.3       1 GYN         0.0000 
     26 O43         1.2900   27.2320   -0.9700 O.3       1 GYN        -0.5600 
     27 C37         1.2610   26.2770    0.1100 C.3       1 GYN         0.4182 
     28 C36         1.5500   24.8640   -0.3510 C.2       1 GYN        -0.2764 
     29 C38         1.1950   23.7000    0.5460 C.3       1 GYN         0.1382 
     30 C35         2.1020   24.6670   -1.5670 C.2       1 GYN        -0.2882 
     31 C34         2.4700   23.3380   -2.2020 C.3       1 GYN         0.1382 
     32 C33         3.0310   23.5600   -3.6150 C.3       1 GYN         0.0610 
     33 C32         4.3370   24.3520   -3.6540 C.2       1 GYN         0.3280 
     34 N31         4.9310   24.6090   -2.5600 N.2       1 GYN        -0.6960 
     35 C30         6.3120   24.9990   -2.3160 C.3       1 GYN         0.2460 
     36 C46         6.5960   26.0960   -3.3310 C.3       1 GYN         0.0000 
     37 C28         6.2110   25.7110   -4.7570 C.3       1 GYN         0.0000 
     38 H1          5.1843   25.8721   -9.6553 H         1 GYN         0.0000 
     39 H2          4.8090   23.8865  -10.7548 H         1 GYN         0.0000 
     40 H3          5.6938   22.9176   -9.5279 H         1 GYN         0.0000 
     41 H4          6.7252   24.2951  -11.9912 H         1 GYN         0.0000 
     42 H5          8.5067   22.6337  -11.8481 H         1 GYN         0.0000 
     43 H6          6.9065   21.8325  -11.6926 H         1 GYN         0.0000 
     44 H7          7.9203   22.1044  -10.2348 H         1 GYN         0.0000 
     45 H8          3.9907   26.5016   -9.2040 H         1 GYN         0.0000 
     46 H9          3.7634   27.5905   -7.7936 H         1 GYN         0.0000 
     47 H10         2.5268   26.3447   -8.1751 H         1 GYN         0.0000 
     48 H11         2.9843   24.9727   -5.7582 H         1 GYN         0.0000 
     49 H12         4.4591   22.8866   -5.7601 H         1 GYN         0.0000 
     50 H13         6.1037   22.9932   -5.0454 H         1 GYN         0.0000 
     51 H14         7.0280   23.8972   -6.9645 H         1 GYN         0.0000 
     52 H15         5.8182   22.7435   -7.6217 H         1 GYN         0.0000 
     53 H16         4.5580   27.6025   -5.2792 H         1 GYN         0.1500 
     54 H17         1.4082   25.6701   -5.3386 H         1 GYN         0.0000 
     55 H18         0.5004   27.1874   -5.6551 H         1 GYN         0.0000 
     56 H19         0.7857   26.6473   -3.9659 H         1 GYN         0.0000 
     57 H20         3.5278   29.2955   -4.4749 H         1 GYN         0.0000 
     58 H21         1.6810   30.5777   -5.1328 H         1 GYN         0.4000 
     59 H22         1.1143   28.2704   -2.9818 H         1 GYN         0.0000 
     60 H23         1.4337   30.0378   -3.0101 H         1 GYN         0.0000 
     61 H24         2.8066   29.7405   -1.2899 H         1 GYN         0.0000 
     62 H25         3.9058   28.8480   -2.3952 H         1 GYN         0.0000 
     63 H26         3.1529   26.7967   -1.7313 H         1 GYN         0.0000 
     64 H27         3.2816   28.6700    0.6203 H         1 GYN         0.0000 
     65 H28         4.2784   27.2267    0.2332 H         1 GYN         0.0000 
     66 H29         2.8816   25.9276    1.5087 H         1 GYN         0.0000 
     67 H30         1.0382   26.9761    2.7927 H         1 GYN         0.0000 
     68 H31         1.1311   28.4383    1.7535 H         1 GYN         0.0000 
     69 H32         2.5022   28.0160    2.8345 H         1 GYN         0.0000 
     70 H33         0.2748   26.2910    0.5971 H         1 GYN         0.0000 
     71 H34         1.4744   22.7578    0.0519 H         1 GYN         0.0000 
     72 H35         0.1125   23.7045    0.7414 H         1 GYN         0.0000 
     73 H36         1.7398   23.7907    1.4973 H         1 GYN         0.0000 
     74 H37         2.3057   25.5592   -2.1572 H         1 GYN         0.1500 
     75 H38         1.5731   22.7041   -2.2631 H         1 GYN         0.0000 
     76 H39         3.2306   22.8386   -1.5839 H         1 GYN         0.0000 
     77 H40         2.2787   24.1065   -4.2028 H         1 GYN         0.0000 
     78 H41         3.2106   22.5762   -4.0732 H         1 GYN         0.0000 
     79 H42         6.9880   24.1451   -2.4702 H         1 GYN         0.0000 
     80 H43         6.4308   25.3803   -1.2911 H         1 GYN         0.0000 
     81 H44         7.6721   26.3227   -3.3087 H         1 GYN         0.0000 
     82 H45         6.0264   26.9926   -3.0452 H         1 GYN         0.0000 
     83 H46         6.0306   26.6453   -5.3089 H         1 GYN         0.0000 
     84 H47         7.0722   25.1862   -5.1962 H         1 GYN         0.0000 
@<TRIPOS>BOND
     1    1    2 2    
     2    2    3 1    
     3    2    6 1    
     4    3    4 1    
     5    4    5 1    
     6    4    8 1    
     7    5    6 1    
     8    6    7 1    
     9    8    9 2    
    10    8   14 1    
    11    9   10 1    
    12    9   11 1    
    13   11   12 1    
    14   11   15 1    
    15   12   13 1    
    16   12   33 1    
    17   12   37 1    
    18   13   14 1    
    19   15   16 2    
    20   16   17 1    
    21   16   18 1    
    22   18   19 1    
    23   18   20 1    
    24   20   21 1    
    25   21   22 1    
    26   22   23 1    
    27   22   26 1    
    28   23   24 1    
    29   24   25 1    
    30   24   27 1    
    31   26   27 1    
    32   27   28 1    
    33   28   29 1    
    34   28   30 2    
    35   30   31 1    
    36   31   32 1    
    37   32   33 1    
    38   33   34 2    
    39   34   35 1    
    40   35   36 1    
    41   36   37 1    
    42    4   38 1    
    43    5   39 1    
    44    5   40 1    
    45    6   41 1    
    46    7   42 1    
    47    7   43 1    
    48    7   44 1    
    49   10   45 1    
    50   10   46 1    
    51   10   47 1    
    52   11   48 1    
    53   13   49 1    
    54   13   50 1    
    55   14   51 1    
    56   14   52 1    
    57   15   53 1    
    58   17   54 1    
    59   17   55 1    
    60   17   56 1    
    61   18   57 1    
    62   19   58 1    
    63   20   59 1    
    64   20   60 1    
    65   21   61 1    
    66   21   62 1    
    67   22   63 1    
    68   23   64 1    
    69   23   65 1    
    70   24   66 1    
    71   25   67 1    
    72   25   68 1    
    73   25   69 1    
    74   27   70 1    
    75   29   71 1    
    76   29   72 1    
    77   29   73 1    
    78   30   74 1    
    79   31   75 1    
    80   31   76 1    
    81   32   77 1    
    82   32   78 1    
    83   35   79 1    
    84   35   80 1    
    85   36   81 1    
    86   36   82 1    
    87   37   83 1    
    88   37   84 1    
@<TRIPOS>SUBSTRUCTURE
     1 GYN         1 PERM              0 ****  ****    0 ROOT 
@<TRIPOS>NORMAL
@<TRIPOS>ALT_TYPE
MMFF94_ALT_TYPE_SET 
MMFF94 4 CR 5 CR 6 CR 7 CR 10 CR 11 CR 12 CR 13 CR 14 CR 17 CR 18 CR \
20 CR 21 CR 22 CR 23 CR 24 CR 25 CR 27 CR 29 CR 31 CR \
32 CR 35 CR 36 CR 37 CR 2 COO 33 C=N 8 C=C 9 C=C 15 C=C \
16 C=C 28 C=C 30 C=C 38 HC 39 HC 40 HC 41 HC 42 HC 43 HC \
44 HC 45 HC 46 HC 47 HC 48 HC 49 HC 50 HC 51 HC 52 HC \
53 HC 54 HC 55 HC 56 HC 57 HC 59 HC 60 HC 61 HC 62 HC \
63 HC 64 HC 65 HC 66 HC 67 HC 68 HC 69 HC 70 HC 71 HC \
72 HC 73 HC 74 HC 75 HC 76 HC 77 HC 78 HC 79 HC 80 HC \
81 HC 82 HC 83 HC 84 HC 58 HOR 1 O=CO 3 OC=O 19 OR 26 OR \
34 N=C 
