#	Name:			3ryj_ligand
#	Creating user name:	suminyi
#	Creation time:		Sun Sep 30 06:49:06 2018

#	Modifying user name:	suminyi
#	Modification time:	Sun Sep 30 06:49:06 2018

@<TRIPOS>MOLECULE
3ryj_ligand
   27    27     1     1     0
SMALL
MMFF94_CHARGES


@<TRIPOS>ATOM
      1 S          15.2460    0.2580   16.9200 S.o2      1 RYJ         1.4470 
      2 N'         18.6140    5.2240   13.7110 N.am      1 RYJ        -0.7301 
      3 O'         16.5250    6.0240   13.6890 O.2       1 RYJ        -0.5700 
      4 C1         16.8220    3.9130   14.7590 C.ar      1 RYJ         0.0862 
      5 C2         17.1920    1.8280   15.8600 C.ar      1 RYJ        -0.1500 
      6 C3         17.6960    2.9480   15.1220 C.ar      1 RYJ        -0.1500 
      7 C4         15.7990    1.6260   16.0950 C.ar      1 RYJ        -0.0090 
      8 C5         15.4820    3.7720   15.0360 C.ar      1 RYJ        -0.1500 
      9 C6         14.9530    2.6690   15.6920 C.ar      1 RYJ        -0.1500 
     10 C7         17.3320    5.1050   14.0010 C.2       1 RYJ         0.5438 
     11 F2'1       20.6470    7.0170   14.6370 F         1 RYJ        -0.3400 
     12 F2'2       18.7960    7.8360   14.7740 F         1 RYJ        -0.3400 
     13 F2'3       20.0480    8.4640   13.1210 F         1 RYJ        -0.3400 
     14 C1'        19.1000    6.3550   12.9040 C.3       1 RYJ         0.3001 
     15 O1S        15.7540    0.3430   18.2730 O.2       1 RYJ        -0.6500 
     16 C2'        19.6310    7.4340   13.8550 C.3       1 RYJ         1.0200 
     17 O2S        15.8230   -1.0240   16.2060 O.2       1 RYJ        -0.6500 
     18 N3S        13.7800    0.3260   16.7620 N.am      1 RYJ        -0.9780 
     19 H1         19.2620    4.5386   14.0430 H         1 RYJ         0.3700 
     20 H2         17.8968    1.1055   16.2555 H         1 RYJ         0.1500 
     21 H3         18.7461    3.0192   14.8627 H         1 RYJ         0.1500 
     22 H4         14.8060    4.5610   14.7268 H         1 RYJ         0.1500 
     23 H5         13.8890    2.6142   15.8921 H         1 RYJ         0.1500 
     24 H6         18.2751    6.7636   12.3019 H         1 RYJ         0.0000 
     25 H7         19.9074    6.0166   12.2380 H         1 RYJ         0.0000 
     26 H8         13.2002   -0.3817   17.1658 H         1 RYJ         0.4200 
     27 H9         13.3666    1.0798   16.2512 H         1 RYJ         0.4200 
@<TRIPOS>BOND
     1    7    1 1    
     2    1   15 2    
     3    1   17 2    
     4    1   18 am   
     5    2   10 am   
     6   14    2 1    
     7   10    3 2    
     8    4    6 ar   
     9    4    8 ar   
    10   10    4 1    
    11    6    5 ar   
    12    5    7 ar   
    13    9    7 ar   
    14    8    9 ar   
    15   16   11 1    
    16   16   12 1    
    17   16   13 1    
    18   14   16 1    
    19    2   19 1    
    20    5   20 1    
    21    6   21 1    
    22    8   22 1    
    23    9   23 1    
    24   14   24 1    
    25   14   25 1    
    26   18   26 1    
    27   18   27 1    
@<TRIPOS>SUBSTRUCTURE
     1 RYJ         1 PERM              0 ****  ****    0 ROOT 
@<TRIPOS>NORMAL
@<TRIPOS>ALT_TYPE
MMFF94_ALT_TYPE_SET 
MMFF94 14 CR 16 CR 4 CB 5 CB 6 CB 7 CB 8 CB 9 CB 10 C=ON 20 HC 21 HC \
22 HC 23 HC 24 HC 25 HC 19 HNCO 26 HNSO 27 HNSO 3 O=CN \
15 O2S 17 O2S 18 NSO2 2 NC=O 1 SO2N 11 F 12 F 13 F 
