#	Name:			3ryj_ligand
#	Creating user name:	suminyi
#	Creation time:		Sun Sep 30 06:51:14 2018

#	Modifying user name:	suminyi
#	Modification time:	Sun Sep 30 06:51:15 2018

@<TRIPOS>MOLECULE
3ryj_ligand
   27    27     1     1     0
SMALL
MMFF94_CHARGES


@<TRIPOS>ATOM
      1 S          15.5970   -0.1570   16.8550 S.o2      1 MOL         1.4470 
      2 N'         18.5350    5.1150   13.6500 N.am      1 MOL        -0.7301 
      3 O'         16.4120    5.7140   13.4960 O.2       1 MOL        -0.5700 
      4 C1         16.8350    3.6910   14.6880 C.ar      1 MOL         0.0862 
      5 C2         17.3710    1.6220   15.8250 C.ar      1 MOL        -0.1500 
      6 C3         17.7800    2.7640   15.1450 C.ar      1 MOL        -0.1500 
      7 C4         16.0250    1.3750   16.0580 C.ar      1 MOL        -0.0090 
      8 C5         15.4810    3.4600   14.9710 C.ar      1 MOL        -0.1500 
      9 C6         15.0730    2.3110   15.6510 C.ar      1 MOL        -0.1500 
     10 C7         17.2260    4.9150   13.9030 C.2       1 MOL         0.5438 
     11 F2'1       20.7050    7.1090   14.4240 F         1 MOL        -0.3400 
     12 F2'2       18.6810    7.8050   14.7500 F         1 MOL        -0.3400 
     13 F2'3       19.8350    8.5480   13.0600 F         1 MOL        -0.3400 
     14 C1'        19.0620    6.2980   12.9190 C.3       1 MOL         0.3001 
     15 O1S        15.7460   -0.0710   18.2970 O.2       1 MOL        -0.6500 
     16 C2'        19.5690    7.4620   13.8040 C.3       1 MOL         1.0200 
     17 O2S        15.2060   -1.2320   15.9740 O.2       1 MOL        -0.6500 
     18 N3S        14.0320   -0.0360   17.1640 N.am      1 MOL        -0.9780 
     19 H1         19.1930    4.4390   14.0020 H         1 MOL         0.3700 
     20 H2         18.1100    0.9000   16.1660 H         1 MOL         0.1500 
     21 H3         18.8450    2.9010   14.9720 H         1 MOL         0.1500 
     22 H4         14.7280    4.1770   14.6510 H         1 MOL         0.1500 
     23 H5         14.0150    2.1490   15.8540 H         1 MOL         0.1500 
     24 H6         18.2900    6.6970   12.2540 H         1 MOL         0.0000 
     25 H7         19.9010    5.9790   12.2940 H         1 MOL         0.0000 
     26 H8         14.1430   -0.2680   18.1440 H         1 MOL         0.4200 
     27 H9         13.7940   -0.9610   16.7910 H         1 MOL         0.4200 
@<TRIPOS>BOND
     1    7    1 1    
     2    1   15 2    
     3    1   17 2    
     4    1   18 am   
     5    2   10 am   
     6   14    2 1    
     7   10    3 2    
     8    4    6 ar   
     9    4    8 ar   
    10   10    4 1    
    11    6    5 ar   
    12    5    7 ar   
    13    9    7 ar   
    14    8    9 ar   
    15   16   11 1    
    16   16   12 1    
    17   16   13 1    
    18   14   16 1    
    19    2   19 1    
    20    5   20 1    
    21    6   21 1    
    22    8   22 1    
    23    9   23 1    
    24   14   24 1    
    25   14   25 1    
    26   18   26 1    
    27   18   27 1    
@<TRIPOS>SUBSTRUCTURE
     1 MOL         1 PERM              0 ****  ****    0 ROOT 
@<TRIPOS>NORMAL
@<TRIPOS>ALT_TYPE
MMFF94_ALT_TYPE_SET 
MMFF94 14 CR 16 CR 4 CB 5 CB 6 CB 7 CB 8 CB 9 CB 10 C=ON 20 HC 21 HC \
22 HC 23 HC 24 HC 25 HC 19 HNCO 26 HNSO 27 HNSO 3 O=CN \
15 O2S 17 O2S 18 NSO2 2 NC=O 1 SO2N 11 F 12 F 13 F 
