#	Name:			1owh_ligand
#	Creating user name:	suminyi
#	Creation time:		Sun Sep 30 06:51:11 2018

#	Modifying user name:	suminyi
#	Modification time:	Sun Sep 30 06:51:11 2018

@<TRIPOS>MOLECULE
1owh_ligand
   44    46     1     1     0
SMALL
MMFF94_CHARGES


@<TRIPOS>ATOM
      1 N18        16.8390   19.6590   33.6010 N.pl3     1 MOL        -1.1924 
      2 C17        18.1470   19.5690   34.0290 C.cat     1 MOL         0.7308 
      3 N19        18.5320   20.5470   34.9140 N.pl3     1 MOL        -1.1924 
      4 C12        19.1180   18.5430   33.5420 C.ar      1 MOL        -0.0220 
      5 C13        20.3900   18.4600   34.1210 C.ar      1 MOL        -0.1500 
      6 C3         21.3280   17.5250   33.6820 C.ar      1 MOL         0.0000 
      7 C4         22.5500   17.4170   34.3360 C.ar      1 MOL        -0.1500 
      8 C5         23.4990   16.4960   33.9000 C.ar      1 MOL        -0.1500 
      9 C6         23.2790   15.7100   32.7610 C.ar      1 MOL         0.0862 
     10 C1         22.0400   15.8310   32.0970 C.ar      1 MOL        -0.1500 
     11 C2         21.0500   16.6980   32.5900 C.ar      1 MOL         0.0000 
     12 C10        19.7780   16.7600   32.0140 C.ar      1 MOL        -0.1500 
     13 C11        18.8120   17.6510   32.5030 C.ar      1 MOL        -0.1500 
     14 C23        24.3980   14.7770   32.3410 C.2       1 MOL         0.5438 
     15 O35        25.3340   14.5610   33.0870 O.2       1 MOL        -0.5700 
     16 N24        24.3490   14.1890   31.1300 N.am      1 MOL        -0.5470 
     17 C25        25.3550   13.3420   30.5410 C.ar      1 MOL         0.1170 
     18 C30        25.9680   12.3090   31.2550 C.ar      1 MOL        -0.1500 
     19 C29        26.8630   11.4340   30.6290 C.ar      1 MOL        -0.1500 
     20 C28        27.1680   11.5770   29.2720 C.ar      1 MOL        -0.1435 
     21 C27        26.5800   12.6310   28.5690 C.ar      1 MOL        -0.1500 
     22 C26        25.6760   13.4970   29.1940 C.ar      1 MOL        -0.1500 
     23 C37        27.9640   10.5040   28.5310 C.3       1 MOL         0.6465 
     24 N38        29.4520   10.7530   28.4320 N.4       1 MOL        -0.8530 
     25 H1         16.3490   18.7720   33.5950 H         1 MOL         0.6690 
     26 H2         16.2650   20.3620   34.0910 H         1 MOL         0.6690 
     27 H3         19.4850   20.8930   34.8640 H         1 MOL         0.6690 
     28 H4         17.8100   21.2300   35.1770 H         1 MOL         0.6690 
     29 H5         20.6530   19.1090   34.9500 H         1 MOL         0.1500 
     30 H6         22.7640   18.0530   35.1910 H         1 MOL         0.1500 
     31 H7         24.4490   16.4310   34.4310 H         1 MOL         0.1500 
     32 H8         21.8140   15.2350   31.2120 H         1 MOL         0.1500 
     33 H9         19.5350   16.1120   31.1700 H         1 MOL         0.1500 
     34 H10        17.8380   17.6900   32.0160 H         1 MOL         0.1500 
     35 H11        23.6260   14.4950   30.4990 H         1 MOL         0.3700 
     36 H12        25.7230   12.1570   32.3010 H         1 MOL         0.1500 
     37 H13        27.2840   10.6060   31.1960 H         1 MOL         0.1500 
     38 H14        26.7700   12.7390   27.5040 H         1 MOL         0.1500 
     39 H15        25.1620   14.2540   28.6040 H         1 MOL         0.1500 
     40 H16        27.5720   10.3920   27.5130 H         1 MOL         0.0000 
     41 H17        27.8230    9.5420   29.0330 H         1 MOL         0.0000 
     42 H18        29.9810    9.8970   28.0850 H         1 MOL         0.4500 
     43 H19        29.8920   10.9610   29.3360 H         1 MOL         0.4500 
     44 H20        29.6920   11.4950   27.7640 H         1 MOL         0.4500 
@<TRIPOS>BOND
     1    1    2 ar   
     2    2    3 ar   
     3    2    4 1    
     4    4    5 ar   
     5    4   13 ar   
     6    5    6 ar   
     7    6    7 ar   
     8    6   11 ar   
     9    7    8 ar   
    10    8    9 ar   
    11    9   10 ar   
    12    9   14 1    
    13   10   11 ar   
    14   11   12 ar   
    15   12   13 ar   
    16   14   15 2    
    17   14   16 am   
    18   16   17 1    
    19   17   18 ar   
    20   17   22 ar   
    21   18   19 ar   
    22   19   20 ar   
    23   20   21 ar   
    24   20   23 1    
    25   21   22 ar   
    26   23   24 1    
    27    1   25 1    
    28    1   26 1    
    29    3   27 1    
    30    3   28 1    
    31    5   29 1    
    32    7   30 1    
    33    8   31 1    
    34   10   32 1    
    35   12   33 1    
    36   13   34 1    
    37   16   35 1    
    38   18   36 1    
    39   19   37 1    
    40   21   38 1    
    41   22   39 1    
    42   23   40 1    
    43   23   41 1    
    44   24   42 1    
    45   24   43 1    
    46   24   44 1    
@<TRIPOS>SUBSTRUCTURE
     1 MOL         1 PERM              0 ****  ****    0 ROOT 
@<TRIPOS>NORMAL
@<TRIPOS>ALT_TYPE
MMFF94_ALT_TYPE_SET 
MMFF94 23 CR 4 CB 5 CB 6 CB 7 CB 8 CB 9 CB 10 CB 11 CB 12 CB 13 CB 17 CB \
18 CB 19 CB 20 CB 21 CB 22 CB 2 CNN+ 14 C=ON 29 HC 30 HC \
31 HC 32 HC 33 HC 34 HC 36 HC 37 HC 38 HC 39 HC 40 HC \
41 HC 35 HNCC 42 HNR+ 43 HNR+ 44 HNR+ 25 HN 26 HN 27 HN \
28 HN 15 O=CN 24 NR+ 1 NCN+ 3 NCN+ 16 NC=O 
