#	Name:			4u4s_ligand
#	Creating user name:	suminyi
#	Creation time:		Sun Sep 30 06:51:02 2018

#	Modifying user name:	suminyi
#	Modification time:	Sun Sep 30 06:51:02 2018

@<TRIPOS>MOLECULE
4u4s_ligand
   25    26     1     1     0
SMALL
MMFF94_CHARGES


@<TRIPOS>ATOM
      1 C1        -16.5500   43.8310   -5.4960 C.ar      1 MOL         0.1600 
      2 N1        -17.4070   43.4270   -4.5450 N.ar      1 MOL        -0.6200 
      3 O1        -13.5020   44.6910   -6.4250 O.2       1 MOL        -0.6500 
      4 C2        -17.5380   44.2010   -3.4550 C.ar      1 MOL         0.1600 
      5 N2        -14.5390   46.9530   -6.4180 N.am      1 MOL        -0.9137 
      6 O2        -15.5200   45.2150   -7.8950 O.2       1 MOL        -0.6500 
      7 C3        -16.8510   45.3940   -3.2980 C.ar      1 MOL        -0.1500 
      8 N3        -15.2900   46.9910   -4.2460 N.pl3     1 MOL        -0.8382 
      9 C4        -15.8500   45.0010   -5.3890 C.ar      1 MOL        -0.0090 
     10 C5        -14.1140   47.1950   -5.0700 C.3       1 MOL         0.7248 
     11 C6        -15.9820   45.8140   -4.2940 C.ar      1 MOL         0.1000 
     12 C7        -15.3090   47.8620   -3.0600 C.3       1 MOL         0.3691 
     13 C8        -16.5310   48.7880   -3.1210 C.3       1 MOL         0.0000 
     14 S1        -14.7670   45.3650   -6.6580 S.o2      1 MOL         1.4470 
     15 H         -16.4420   43.1720   -6.3570 H         1 MOL         0.1500 
     16 H1        -18.2260   43.8410   -2.6940 H         1 MOL         0.1500 
     17 H2        -15.4850   47.3180   -6.4450 H         1 MOL         0.4200 
     18 H3        -17.0040   45.9630   -2.3940 H         1 MOL         0.1500 
     19 H4        -13.7800   48.2430   -4.9910 H         1 MOL         0.0000 
     20 H5        -13.2790   46.5370   -4.7710 H         1 MOL         0.0000 
     21 H6        -14.4060   48.4790   -3.0100 H         1 MOL         0.0000 
     22 H7        -15.3300   47.2660   -2.1480 H         1 MOL         0.0000 
     23 H8        -16.5140   49.4880   -2.2850 H         1 MOL         0.0000 
     24 H9        -17.4630   48.2200   -3.0850 H         1 MOL         0.0000 
     25 H10       -16.5100   49.3550   -4.0510 H         1 MOL         0.0000 
@<TRIPOS>BOND
     1    2    1 ar   
     2    1    9 ar   
     3    4    2 ar   
     4   14    3 2    
     5    7    4 ar   
     6   10    5 1    
     7    5   14 am   
     8   14    6 2    
     9   11    7 ar   
    10    8   10 1    
    11    8   11 1    
    12    8   12 1    
    13    9   11 ar   
    14    9   14 1    
    15   12   13 1    
    16    1   15 1    
    17    4   16 1    
    18    5   17 1    
    19    7   18 1    
    20   10   19 1    
    21   10   20 1    
    22   12   21 1    
    23   12   22 1    
    24   13   23 1    
    25   13   24 1    
    26   13   25 1    
@<TRIPOS>SUBSTRUCTURE
     1 MOL         1 PERM              0 ****  ****    0 ROOT 
@<TRIPOS>NORMAL
@<TRIPOS>ALT_TYPE
MMFF94_ALT_TYPE_SET 
MMFF94 10 CR 12 CR 13 CR 1 CB 4 CB 7 CB 9 CB 11 CB 15 HC 16 HC 18 HC \
19 HC 20 HC 21 HC 22 HC 23 HC 24 HC 25 HC 17 HNSO 3 O2S \
6 O2S 2 NPYD 5 NSO2 8 NC=C 14 SO2N 
