#	Name:			4djv_ligand
#	Creating user name:	suminyi
#	Creation time:		Sun Sep 30 06:50:59 2018

#	Modifying user name:	suminyi
#	Modification time:	Sun Sep 30 06:50:59 2018

@<TRIPOS>MOLECULE
4djv_ligand
   50    53     1     1     0
SMALL
MMFF94_CHARGES


@<TRIPOS>ATOM
      1 O1         22.6450   12.7940   22.4640 O.2       1 MOL        -0.5700 
      2 C1         22.7030   11.5800   22.5820 C.2       1 MOL         0.8520 
      3 C2         22.4950   10.5250   21.4930 C.3       1 MOL         0.6756 
      4 N1         22.7290    9.3620   22.3520 N.pl3     1 MOL        -0.8443 
      5 C3         23.1180    9.5780   23.6010 C.cat     1 MOL         1.2000 
      6 N2         22.9770   10.9640   23.7480 N.am      1 MOL        -0.7373 
      7 N3         22.6970    8.8600   24.6330 N.pl3     1 MOL        -0.9667 
      8 C4         23.3800   11.6620   24.9720 C.3       1 MOL         0.3276 
      9 C5         21.0580   10.5580   20.9340 C.ar      1 MOL        -0.1435 
     10 C6         20.2900    9.3920   20.8340 C.ar      1 MOL        -0.1500 
     11 C7         18.9810    9.4330   20.3620 C.ar      1 MOL        -0.1500 
     12 C8         18.4190   10.6460   19.9810 C.ar      1 MOL        -0.1500 
     13 C9         19.1780   11.8100   20.0490 C.ar      1 MOL        -0.1500 
     14 C10        20.4890   11.7660   20.5120 C.ar      1 MOL        -0.1500 
     15 C11        23.5950   10.6310   20.4200 C.ar      1 MOL        -0.1435 
     16 C12        23.3290   10.9290   19.0800 C.ar      1 MOL        -0.1500 
     17 C13        24.3720   11.1350   18.1810 C.ar      1 MOL        -0.1500 
     18 C14        25.6980   11.0480   18.6000 C.ar      1 MOL        -0.1500 
     19 C15        25.9890   10.7070   19.9290 C.ar      1 MOL         0.0000 
     20 C16        24.9280   10.4910   20.8140 C.ar      1 MOL        -0.1500 
     21 C17        29.9880   10.5550   21.5200 C.ar      1 MOL        -0.1500 
     22 C18        27.7920    9.5860   21.2960 C.ar      1 MOL        -0.1500 
     23 C19        27.3950   10.6280   20.4430 C.ar      1 MOL         0.0000 
     24 C20        28.3130   11.6490   20.1630 C.ar      1 MOL        -0.1500 
     25 C21        29.6070   11.6020   20.6840 C.ar      1 MOL        -0.1500 
     26 C22        29.0710    9.5540   21.8350 C.ar      1 MOL         0.0825 
     27 O2         29.3730    8.5210   22.6960 O.3       1 MOL        -0.3625 
     28 C23        30.4150    8.6160   23.6880 C.3       1 MOL         0.2800 
     29 H1         22.4880    8.4190   22.0290 H         1 MOL         0.4500 
     30 H2         22.6760    7.8410   24.5040 H         1 MOL         0.4500 
     31 H3         23.0770    9.0430   25.5660 H         1 MOL         0.4500 
     32 H4         23.2250   12.7390   24.8770 H         1 MOL         0.0000 
     33 H5         24.4420   11.4720   25.1350 H         1 MOL         0.0000 
     34 H6         22.8100   11.2860   25.8260 H         1 MOL         0.0000 
     35 H7         20.7030    8.4370   21.1380 H         1 MOL         0.1500 
     36 H8         18.4000    8.5150   20.3110 H         1 MOL         0.1500 
     37 H9         17.3920   10.6870   19.6440 H         1 MOL         0.1500 
     38 H10        18.7470   12.7610   19.7590 H         1 MOL         0.1500 
     39 H11        21.0670   12.6890   20.5410 H         1 MOL         0.1500 
     40 H12        22.3110   11.0270   18.7240 H         1 MOL         0.1500 
     41 H13        24.1500   11.3860   17.1460 H         1 MOL         0.1500 
     42 H14        26.4980   11.2320   17.8890 H         1 MOL         0.1500 
     43 H15        25.1530   10.2520   21.8420 H         1 MOL         0.1500 
     44 H16        30.9860   10.5400   21.9470 H         1 MOL         0.1500 
     45 H17        27.0950    8.8070   21.5800 H         1 MOL         0.1500 
     46 H18        27.9930   12.5050   19.5800 H         1 MOL         0.1500 
     47 H19        30.3120   12.3980   20.4630 H         1 MOL         0.1500 
     48 H20        30.3410    7.7630   24.3610 H         1 MOL         0.0000 
     49 H21        30.2980    9.5420   24.2540 H         1 MOL         0.0000 
     50 H22        31.3850    8.5960   23.1890 H         1 MOL         0.0000 
@<TRIPOS>BOND
     1    2    1 2    
     2    3    2 1    
     3    2    6 am   
     4    3    4 1    
     5    3    9 1    
     6   15    3 1    
     7    4    5 ar   
     8    5    6 1    
     9    5    7 ar   
    10    6    8 1    
    11    9   10 ar   
    12    9   14 ar   
    13   10   11 ar   
    14   11   12 ar   
    15   13   12 ar   
    16   14   13 ar   
    17   15   16 ar   
    18   20   15 ar   
    19   17   16 ar   
    20   18   17 ar   
    21   19   18 ar   
    22   19   20 ar   
    23   23   19 1    
    24   21   25 ar   
    25   26   21 ar   
    26   22   23 ar   
    27   22   26 ar   
    28   23   24 ar   
    29   24   25 ar   
    30   26   27 1    
    31   27   28 1    
    32    4   29 1    
    33    7   30 1    
    34    7   31 1    
    35    8   32 1    
    36    8   33 1    
    37    8   34 1    
    38   10   35 1    
    39   11   36 1    
    40   12   37 1    
    41   13   38 1    
    42   14   39 1    
    43   16   40 1    
    44   17   41 1    
    45   18   42 1    
    46   20   43 1    
    47   21   44 1    
    48   22   45 1    
    49   24   46 1    
    50   25   47 1    
    51   28   48 1    
    52   28   49 1    
    53   28   50 1    
@<TRIPOS>SUBSTRUCTURE
     1 MOL         1 PERM              0 ****  ****    0 ROOT 
@<TRIPOS>NORMAL
@<TRIPOS>ALT_TYPE
MMFF94_ALT_TYPE_SET 
MMFF94 3 CR 8 CR 28 CR 9 CB 10 CB 11 CB 12 CB 13 CB 14 CB 15 CB 16 CB \
17 CB 18 CB 19 CB 20 CB 21 CB 22 CB 23 CB 24 CB 25 CB \
26 CB 5 CGD+ 2 C=ON 32 HC 33 HC 34 HC 35 HC 36 HC 37 HC \
38 HC 39 HC 40 HC 41 HC 42 HC 43 HC 44 HC 45 HC 46 HC \
47 HC 48 HC 49 HC 50 HC 29 HGD+ 30 HGD+ 31 HGD+ 1 O=CN \
27 OC=C 4 NGD+ 6 NGD+ 7 NGD+ 
