#	Name:			4djv_ligand
#	Creating user name:	suminyi
#	Creation time:		Sun Sep 30 06:48:37 2018

#	Modifying user name:	suminyi
#	Modification time:	Sun Sep 30 06:48:37 2018

@<TRIPOS>MOLECULE
4djv_ligand
   50    53     1     1     0
SMALL
MMFF94_CHARGES


@<TRIPOS>ATOM
      1 O1         22.8640   12.9180   22.1510 O.2       1 MOL        -0.5700 
      2 C1         22.7760   11.7400   22.4370 C.2       1 MOL         0.8520 
      3 C2         22.5330   10.5520   21.4300 C.3       1 MOL         0.6756 
      4 N1         22.6980    9.3620   22.3290 N.pl3     1 MOL        -0.8443 
      5 C3         22.8530    9.7820   23.5950 C.cat     1 MOL         1.2000 
      6 N2         22.9440   11.2000   23.6910 N.am      1 MOL        -0.7373 
      7 N3         22.9790    8.9880   24.6570 N.pl3     1 MOL        -0.9667 
      8 C4         23.1800   11.9990   24.9000 C.3       1 MOL         0.3276 
      9 C5         21.1000   10.5960   20.8630 C.ar      1 MOL        -0.1435 
     10 C6         20.3420    9.4330   20.7660 C.ar      1 MOL        -0.1500 
     11 C7         19.0400    9.4670   20.2690 C.ar      1 MOL        -0.1500 
     12 C8         18.4810   10.6590   19.8700 C.ar      1 MOL        -0.1500 
     13 C9         19.2200   11.8240   19.9540 C.ar      1 MOL        -0.1500 
     14 C10        20.5250   11.7940   20.4410 C.ar      1 MOL        -0.1500 
     15 C11        23.6440   10.6010   20.3640 C.ar      1 MOL        -0.1435 
     16 C12        23.3550   10.8820   19.0310 C.ar      1 MOL        -0.1500 
     17 C13        24.3740   11.0650   18.1080 C.ar      1 MOL        -0.1500 
     18 C14        25.6940   10.9560   18.5040 C.ar      1 MOL        -0.1500 
     19 C15        26.0150   10.6440   19.8290 C.ar      1 MOL         0.0000 
     20 C16        24.9770   10.4620   20.7510 C.ar      1 MOL        -0.1500 
     21 C17        29.9970   10.4940   21.4150 C.ar      1 MOL        -0.1500 
     22 C18        27.7730    9.5760   21.2460 C.ar      1 MOL        -0.1500 
     23 C19        27.4290   10.5160   20.2730 C.ar      1 MOL         0.0000 
     24 C20        28.4120   11.4120   19.8460 C.ar      1 MOL        -0.1500 
     25 C21        29.6820   11.4000   20.4130 C.ar      1 MOL        -0.1500 
     26 C22        29.0400    9.5690   21.8180 C.ar      1 MOL         0.0825 
     27 O2         29.2030    8.6170   22.7950 O.3       1 MOL        -0.3625 
     28 C23        30.4090    8.6530   23.5740 C.3       1 MOL         0.2800 
     29 H1         22.6931    8.3784   22.0233 H         1 MOL         0.4500 
     30 H2         22.9071    7.9664   24.5476 H         1 MOL         0.4500 
     31 H3         23.1484    9.3957   25.5876 H         1 MOL         0.4500 
     32 H4         23.1948   13.0669   24.6366 H         1 MOL         0.0000 
     33 H5         24.1466   11.7172   25.3429 H         1 MOL         0.0000 
     34 H6         22.3753   11.8117   25.6262 H         1 MOL         0.0000 
     35 H7         20.7697    8.4881   21.0811 H         1 MOL         0.1500 
     36 H8         18.4657    8.5505   20.1966 H         1 MOL         0.1500 
     37 H9         17.4656   10.6845   19.4914 H         1 MOL         0.1500 
     38 H10        18.7825   12.7647   19.6397 H         1 MOL         0.1500 
     39 H11        21.0994   12.7119   20.4924 H         1 MOL         0.1500 
     40 H12        22.3221   10.9586   18.7112 H         1 MOL         0.1500 
     41 H13        24.1352   11.2936   17.0756 H         1 MOL         0.1500 
     42 H14        26.4867   11.1136   17.7816 H         1 MOL         0.1500 
     43 H15        25.2123   10.2099   21.7787 H         1 MOL         0.1500 
     44 H16        30.9770   10.5069   21.8782 H         1 MOL         0.1500 
     45 H17        27.0413    8.8406   21.5602 H         1 MOL         0.1500 
     46 H18        28.1821   12.1255   19.0630 H         1 MOL         0.1500 
     47 H19        30.4312   12.1040   20.0693 H         1 MOL         0.1500 
     48 H20        30.3949    7.8352   24.3095 H         1 MOL         0.0000 
     49 H21        30.4778    9.6172   24.0990 H         1 MOL         0.0000 
     50 H22        31.2780    8.5341   22.9102 H         1 MOL         0.0000 
@<TRIPOS>BOND
     1    2    1 2    
     2    3    2 1    
     3    2    6 am   
     4    3    4 1    
     5    3    9 1    
     6   15    3 1    
     7    4    5 ar   
     8    5    6 1    
     9    5    7 ar   
    10    6    8 1    
    11    9   10 ar   
    12    9   14 ar   
    13   10   11 ar   
    14   11   12 ar   
    15   13   12 ar   
    16   14   13 ar   
    17   15   16 ar   
    18   20   15 ar   
    19   17   16 ar   
    20   18   17 ar   
    21   19   18 ar   
    22   19   20 ar   
    23   23   19 1    
    24   21   25 ar   
    25   26   21 ar   
    26   22   23 ar   
    27   22   26 ar   
    28   23   24 ar   
    29   24   25 ar   
    30   26   27 1    
    31   27   28 1    
    32    4   29 1    
    33    7   30 1    
    34    7   31 1    
    35    8   32 1    
    36    8   33 1    
    37    8   34 1    
    38   10   35 1    
    39   11   36 1    
    40   12   37 1    
    41   13   38 1    
    42   14   39 1    
    43   16   40 1    
    44   17   41 1    
    45   18   42 1    
    46   20   43 1    
    47   21   44 1    
    48   22   45 1    
    49   24   46 1    
    50   25   47 1    
    51   28   48 1    
    52   28   49 1    
    53   28   50 1    
@<TRIPOS>SUBSTRUCTURE
     1 MOL         1 PERM              0 ****  ****    0 ROOT 
@<TRIPOS>NORMAL
@<TRIPOS>ALT_TYPE
MMFF94_ALT_TYPE_SET 
MMFF94 3 CR 8 CR 28 CR 9 CB 10 CB 11 CB 12 CB 13 CB 14 CB 15 CB 16 CB \
17 CB 18 CB 19 CB 20 CB 21 CB 22 CB 23 CB 24 CB 25 CB \
26 CB 5 CGD+ 2 C=ON 32 HC 33 HC 34 HC 35 HC 36 HC 37 HC \
38 HC 39 HC 40 HC 41 HC 42 HC 43 HC 44 HC 45 HC 46 HC \
47 HC 48 HC 49 HC 50 HC 29 HGD+ 30 HGD+ 31 HGD+ 1 O=CN \
27 OC=C 4 NGD+ 6 NGD+ 7 NGD+ 
