#	Name:			4kzu_ligand
#	Creating user name:	suminyi
#	Creation time:		Sun Sep 30 06:51:11 2018

#	Modifying user name:	suminyi
#	Modification time:	Sun Sep 30 06:51:11 2018

@<TRIPOS>MOLECULE
4kzu_ligand
   27    29     1     1     0
SMALL
MMFF94_CHARGES


@<TRIPOS>ATOM
      1 CAB        -7.5020   38.1840  -12.6880 C.2       1 MOL        -0.1356 
      2 CAD        -7.5250   37.9250  -14.1070 C.2       1 MOL         0.4694 
      3 OAH        -8.2330   38.5570  -14.8660 O.2       1 MOL        -0.5700 
      4 CAE        -6.6510   36.8040  -14.5460 C.ar      1 MOL         0.0862 
      5 CAO        -6.4590   36.5480  -15.9050 C.ar      1 MOL        -0.1500 
      6 CAQ        -5.6060   35.5190  -16.3070 C.ar      1 MOL        -0.1500 
      7 CAR        -4.9820   34.7170  -15.3570 C.ar      1 MOL        -0.1500 
      8 CAP        -5.1880   34.9650  -14.0020 C.ar      1 MOL        -0.1500 
      9 CAF        -6.0010   36.0200  -13.5910 C.ar      1 MOL         0.0825 
     10 OAC        -6.1270   36.2410  -12.2300 O.3       1 MOL        -0.1592 
     11 CAA        -6.8390   37.3560  -11.8170 C.2       1 MOL         0.0483 
     12 CAG        -6.9150   37.5960  -10.3810 C.ar      1 MOL         0.0284 
     13 CAI        -6.2410   36.7260   -9.5150 C.ar      1 MOL        -0.1500 
     14 CAM        -6.2820   36.9070   -8.1370 C.ar      1 MOL        -0.1500 
     15 CAK        -7.0310   37.9430   -7.5960 C.ar      1 MOL         0.1110 
     16 Br1        -7.1330   38.1480   -5.7150 Br        1 MOL        -0.1110 
     17 CAL        -7.7140   38.8180   -8.4290 C.ar      1 MOL        -0.1500 
     18 CAJ        -7.6490   38.6520   -9.8110 C.ar      1 MOL        -0.1500 
     19 H1         -8.0500   39.0680  -12.4220 H         1 MOL         0.1500 
     20 H2         -6.9440   37.1860  -16.6440 H         1 MOL         0.1500 
     21 H3         -5.3980   35.3460  -17.3610 H         1 MOL         0.1500 
     22 H4         -4.3170   33.9140  -15.6800 H         1 MOL         0.1500 
     23 H5         -4.6980   34.3440  -13.2590 H         1 MOL         0.1500 
     24 H6         -5.6690   35.8910   -9.9070 H         1 MOL         0.1500 
     25 H7         -5.7300   36.2400   -7.4870 H         1 MOL         0.1500 
     26 H8         -8.2910   39.6330   -8.0020 H         1 MOL         0.1500 
     27 H9         -8.1950   39.3610  -10.4210 H         1 MOL         0.1500 
@<TRIPOS>BOND
     1    1    2 1    
     2    1   11 2    
     3    2    3 2    
     4    2    4 1    
     5    4    5 ar   
     6    4    9 ar   
     7    5    6 ar   
     8    6    7 ar   
     9    7    8 ar   
    10    8    9 ar   
    11    9   10 1    
    12   10   11 1    
    13   11   12 1    
    14   12   13 ar   
    15   12   18 ar   
    16   13   14 ar   
    17   14   15 ar   
    18   15   16 1    
    19   15   17 ar   
    20   17   18 ar   
    21    1   19 1    
    22    5   20 1    
    23    6   21 1    
    24    7   22 1    
    25    8   23 1    
    26   13   24 1    
    27   14   25 1    
    28   17   26 1    
    29   18   27 1    
@<TRIPOS>SUBSTRUCTURE
     1 MOL         1 PERM              0 ****  ****    0 ROOT 
@<TRIPOS>NORMAL
@<TRIPOS>ALT_TYPE
MMFF94_ALT_TYPE_SET 
MMFF94 4 CB 5 CB 6 CB 7 CB 8 CB 9 CB 12 CB 13 CB 14 CB 15 CB 17 CB 18 CB \
2 C=OR 1 C=C 11 C=C 19 HC 20 HC 21 HC 22 HC 23 HC 24 HC \
25 HC 26 HC 27 HC 3 O=CR 10 OC=C 16 BR 
