#	Name:			4mgd_ligand
#	Creating user name:	suminyi
#	Creation time:		Sun Sep 30 06:50:59 2018

#	Modifying user name:	suminyi
#	Modification time:	Sun Sep 30 06:50:59 2018

@<TRIPOS>MOLECULE
4mgd_ligand
   30    31     1     1     0
SMALL
MMFF94_CHARGES


@<TRIPOS>ATOM
      1 CAJ        -3.0610   -3.5700   20.0650 C.ar      1 MOL        -0.1500 
      2 CAF        -1.8240   -3.2170   19.5210 C.ar      1 MOL        -0.1500 
      3 CAN        -0.8130   -2.7250   20.3370 C.ar      1 MOL         0.0825 
      4 OAA         0.3950   -2.3970   19.8060 O.3       1 MOL        -0.5325 
      5 CAG        -1.0270   -2.6120   21.7040 C.ar      1 MOL        -0.1500 
      6 CAK        -2.2420   -3.0090   22.2580 C.ar      1 MOL        -0.1500 
      7 CAP        -3.2850   -3.4750   21.4460 C.ar      1 MOL        -0.1435 
      8 CAR        -4.5760   -4.0030   22.0970 C.3       1 MOL         0.2870 
      9 CAS        -5.5500   -2.9270   22.6870 C.3       1 MOL         0.8700 
     10 ClD        -6.1430   -1.7430   21.4880 Cl        1 MOL        -0.2900 
     11 ClE        -6.9420   -3.7550   23.4470 Cl        1 MOL        -0.2900 
     12 ClC        -4.7690   -1.9820   23.9870 Cl        1 MOL        -0.2900 
     13 CAQ        -5.2550   -5.1150   21.2750 C.ar      1 MOL        -0.1435 
     14 CAL        -4.8770   -6.4420   21.5030 C.ar      1 MOL        -0.1500 
     15 CAH        -5.5100   -7.4860   20.8320 C.ar      1 MOL        -0.1500 
     16 CAO        -6.5180   -7.2150   19.9160 C.ar      1 MOL         0.0825 
     17 OAB        -7.1540   -8.2330   19.2870 O.3       1 MOL        -0.5325 
     18 CAI        -6.8750   -5.9030   19.6430 C.ar      1 MOL        -0.1500 
     19 CAM        -6.2510   -4.8580   20.3190 C.ar      1 MOL        -0.1500 
     20 H          -3.8260   -3.9700   19.4040 H         1 MOL         0.1500 
     21 H1         -1.6340   -3.3570   18.4590 H         1 MOL         0.1500 
     22 H2          0.6790   -3.1610   19.1690 H         1 MOL         0.4500 
     23 H3         -0.2230   -2.2670   22.3450 H         1 MOL         0.1500 
     24 H4         -2.3530   -2.9790   23.3390 H         1 MOL         0.1500 
     25 H5         -4.2240   -4.5140   22.9940 H         1 MOL         0.0000 
     26 H6         -4.0880   -6.6740   22.2150 H         1 MOL         0.1500 
     27 H7         -5.2220   -8.5160   21.0210 H         1 MOL         0.1500 
     28 H8         -7.7130   -7.8620   18.5570 H         1 MOL         0.4500 
     29 H9         -7.6590   -5.6870   18.9210 H         1 MOL         0.1500 
     30 H10        -6.5720   -3.8510   20.0890 H         1 MOL         0.1500 
@<TRIPOS>BOND
     1    1    2 ar   
     2    1    7 ar   
     3    2    3 ar   
     4    3    4 1    
     5    3    5 ar   
     6    5    6 ar   
     7    6    7 ar   
     8    7    8 1    
     9    8    9 1    
    10    8   13 1    
    11    9   10 1    
    12    9   11 1    
    13    9   12 1    
    14   13   14 ar   
    15   13   19 ar   
    16   14   15 ar   
    17   15   16 ar   
    18   16   17 1    
    19   16   18 ar   
    20   18   19 ar   
    21    1   20 1    
    22    2   21 1    
    23    4   22 1    
    24    5   23 1    
    25    6   24 1    
    26    8   25 1    
    27   14   26 1    
    28   15   27 1    
    29   17   28 1    
    30   18   29 1    
    31   19   30 1    
@<TRIPOS>SUBSTRUCTURE
     1 MOL         1 PERM              0 ****  ****    0 ROOT 
@<TRIPOS>NORMAL
@<TRIPOS>ALT_TYPE
MMFF94_ALT_TYPE_SET 
MMFF94 8 CR 9 CR 1 CB 2 CB 3 CB 5 CB 6 CB 7 CB 13 CB 14 CB 15 CB 16 CB \
18 CB 19 CB 20 HC 21 HC 23 HC 24 HC 25 HC 26 HC 27 HC \
29 HC 30 HC 22 HOCC 28 HOCC 4 OC=C 17 OC=C 10 CL 11 CL \
12 CL 
