#	Name:			4ty7_ligand
#	Creating user name:	suminyi
#	Creation time:		Sun Sep 30 06:50:59 2018

#	Modifying user name:	suminyi
#	Modification time:	Sun Sep 30 06:50:59 2018

@<TRIPOS>MOLECULE
4ty7_ligand
   66    70     1     1     0
SMALL
MMFF94_CHARGES


@<TRIPOS>ATOM
      1 C13        43.3600  -20.6300   29.2550 C.2       1 MOL         0.1732 
      2 C18        37.0500  -16.8050   29.3670 C.3       1 MOL         0.0000 
      3 C17        38.9420  -18.3970   28.8580 C.2       1 MOL         0.5690 
      4 C16        41.3070  -20.5040   28.6250 C.2       1 MOL         0.0065 
      5 C15        43.3780  -20.3440   27.9110 C.2       1 MOL        -0.0276 
      6 C19        38.8270  -16.2070   27.6290 C.3       1 MOL         0.0000 
      7 C20        36.1870  -15.6280   28.8640 C.3       1 MOL         0.0000 
      8 C21        37.9360  -15.0520   27.1250 C.3       1 MOL         0.0000 
      9 C22        38.0040  -17.3530   28.2700 C.3       1 MOL         0.0610 
     10 C23        37.0540  -14.4990   28.2690 C.3       1 MOL         0.0000 
     11 C24        39.4720  -22.0380   27.9630 C.3       1 MOL         0.1435 
     12 C11        40.2630  -23.2460   28.4550 C.ar      1 MOL        -0.1435 
     13 C12        46.8580  -21.0250   30.6120 C.ar      1 MOL         0.3480 
     14 C1         41.6610  -25.5190   29.3010 C.ar      1 MOL        -0.1500 
     15 C2         41.8560  -25.0190   28.0170 C.ar      1 MOL        -0.1500 
     16 C3         40.7890  -24.8730   30.1730 C.ar      1 MOL        -0.1500 
     17 C4         45.2850  -22.1130   32.0910 C.ar      1 MOL        -0.1500 
     18 C5         44.2520  -21.6840   31.2640 C.ar      1 MOL        -0.1500 
     19 C6         41.1600  -23.8860   27.5960 C.ar      1 MOL        -0.1500 
     20 C7         40.0950  -23.7390   29.7540 C.ar      1 MOL        -0.1500 
     21 C8         45.8340  -20.6190   29.7630 C.ar      1 MOL        -0.1500 
     22 C9         46.5760  -21.7750   31.7170 C.ar      1 MOL         0.0000 
     23 C10        44.5070  -20.9640   30.0800 C.ar      1 MOL         0.0540 
     24 C14        47.8090  -22.0570   32.3030 C.2       1 MOL        -0.0676 
     25 C25        36.1610  -13.3340   27.7930 C.3       1 MOL         0.5030 
     26 C26        39.8190  -20.7260   28.7050 C.3       1 MOL         0.4801 
     27 N27        48.7500  -21.4310   31.5180 N.pl3     1 MOL         0.4076 
     28 N28        42.0670  -20.2790   27.5030 N.pl3     1 MOL         0.0332 
     29 N29        48.1730  -20.7680   30.4590 N.2       1 MOL        -0.7660 
     30 N30        42.0670  -20.6880   29.7000 N.2       1 MOL        -0.5653 
     31 N31        48.1390  -22.8420   33.3650 N.pl3     1 MOL        -0.8840 
     32 N32        36.9610  -12.1300   27.3780 N.4       1 MOL        -0.8530 
     33 N33        39.0100  -19.5850   28.2250 N.am      1 MOL        -0.7301 
     34 O34        39.6180  -18.1900   29.8430 O.2       1 MOL        -0.5700 
     35 Cl1        44.6120  -20.2850   26.6890 Cl        1 MOL        -0.1240 
     36 H          36.3910  -17.6090   29.7060 H         1 MOL         0.0000 
     37 H1         37.6280  -16.4720   30.2350 H         1 MOL         0.0000 
     38 H2         39.5250  -15.8120   28.3680 H         1 MOL         0.0000 
     39 H3         39.4210  -16.5960   26.7980 H         1 MOL         0.0000 
     40 H4         35.5860  -15.2370   29.6890 H         1 MOL         0.0000 
     41 H5         35.4890  -15.9890   28.1120 H         1 MOL         0.0000 
     42 H6         37.3040  -15.4030   26.3040 H         1 MOL         0.0000 
     43 H7         38.5750  -14.2620   26.7270 H         1 MOL         0.0000 
     44 H8         37.3910  -17.8170   27.4940 H         1 MOL         0.0000 
     45 H9         37.7050  -14.1260   29.0630 H         1 MOL         0.0000 
     46 H10        38.4070  -22.2460   28.0790 H         1 MOL         0.0000 
     47 H11        39.6330  -21.9060   26.8910 H         1 MOL         0.0000 
     48 H12        42.1760  -26.4230   29.6180 H         1 MOL         0.1500 
     49 H13        42.5320  -25.5280   27.3340 H         1 MOL         0.1500 
     50 H14        40.6370  -25.2640   31.1780 H         1 MOL         0.1500 
     51 H15        45.0680  -22.6780   32.9920 H         1 MOL         0.1500 
     52 H16        43.2300  -21.9560   31.5360 H         1 MOL         0.1500 
     53 H17        41.3120  -23.5180   26.5850 H         1 MOL         0.1500 
     54 H18        39.4190  -23.2570   30.4550 H         1 MOL         0.1500 
     55 H19        46.0820  -20.0290   28.8900 H         1 MOL         0.1500 
     56 H20        35.5120  -13.0110   28.6150 H         1 MOL         0.0000 
     57 H21        35.5270  -13.6440   26.9570 H         1 MOL         0.0000 
     58 H22        39.5980  -20.8680   29.7630 H         1 MOL         0.0000 
     59 H23        49.7500  -21.4330   31.6420 H         1 MOL         0.1620 
     60 H24        41.7120  -20.2260   26.5620 H         1 MOL         0.2700 
     61 H25        47.3420  -23.1280   33.9590 H         1 MOL         0.4000 
     62 H26        48.9850  -22.6320   33.8790 H         1 MOL         0.4000 
     63 H27        36.3690  -11.2500   27.3080 H         1 MOL         0.4500 
     64 H28        37.4780  -12.2180   26.4740 H         1 MOL         0.4500 
     65 H29        37.6060  -11.8310   28.1420 H         1 MOL         0.4500 
     66 H30        38.3910  -19.7440   27.4460 H         1 MOL         0.3700 
@<TRIPOS>BOND
     1    1    5 2    
     2    1   23 1    
     3   30    1 1    
     4    2    7 1    
     5    9    2 1    
     6    3    9 1    
     7   33    3 am   
     8    3   34 2    
     9   26    4 1    
    10    4   28 1    
    11    4   30 2    
    12   28    5 1    
    13    5   35 1    
    14    6    8 1    
    15    9    6 1    
    16    7   10 1    
    17    8   10 1    
    18   10   25 1    
    19   11   12 1    
    20   26   11 1    
    21   12   19 ar   
    22   12   20 ar   
    23   21   13 ar   
    24   13   22 ar   
    25   13   29 2    
    26   15   14 ar   
    27   16   14 ar   
    28   19   15 ar   
    29   20   16 ar   
    30   18   17 ar   
    31   17   22 ar   
    32   23   18 ar   
    33   23   21 ar   
    34   22   24 2    
    35   24   27 1    
    36   24   31 1    
    37   25   32 1    
    38   26   33 1    
    39   27   29 1    
    40    2   36 1    
    41    2   37 1    
    42    6   38 1    
    43    6   39 1    
    44    7   40 1    
    45    7   41 1    
    46    8   42 1    
    47    8   43 1    
    48    9   44 1    
    49   10   45 1    
    50   11   46 1    
    51   11   47 1    
    52   14   48 1    
    53   15   49 1    
    54   16   50 1    
    55   17   51 1    
    56   18   52 1    
    57   19   53 1    
    58   20   54 1    
    59   21   55 1    
    60   25   56 1    
    61   25   57 1    
    62   26   58 1    
    63   27   59 1    
    64   28   60 1    
    65   31   61 1    
    66   31   62 1    
    67   32   63 1    
    68   32   64 1    
    69   32   65 1    
    70   33   66 1    
@<TRIPOS>SUBSTRUCTURE
     1 MOL         1 PERM              0 ****  ****    0 ROOT 
@<TRIPOS>NORMAL
@<TRIPOS>ALT_TYPE
MMFF94_ALT_TYPE_SET 
MMFF94 2 CR 6 CR 7 CR 8 CR 9 CR 10 CR 11 CR 25 CR 26 CR 24 C5A 4 C5A \
5 C5A 1 C5B 12 CB 13 CB 14 CB 15 CB 16 CB 17 CB 18 CB \
19 CB 20 CB 21 CB 22 CB 23 CB 3 C=ON 36 HC 37 HC 38 HC \
39 HC 40 HC 41 HC 42 HC 43 HC 44 HC 45 HC 46 HC 47 HC \
48 HC 49 HC 50 HC 51 HC 52 HC 53 HC 54 HC 55 HC 56 HC \
57 HC 58 HC 60 HPYL 59 HNCC 61 HNCC 62 HNCC 66 HNCO 63 HNR+ \
64 HNR+ 65 HNR+ 34 O=CN 27 NPYL 28 NPYL 29 N5A 30 N5B \
32 NR+ 33 NC=O 31 NC=N 35 CL 
