#	Name:			1e66_ligand
#	Creating user name:	suminyi
#	Creation time:		Sun Sep 30 06:51:10 2018

#	Modifying user name:	suminyi
#	Modification time:	Sun Sep 30 06:51:10 2018

@<TRIPOS>MOLECULE
1e66_ligand
   40    43     1     1     0
SMALL
MMFF94_CHARGES


@<TRIPOS>ATOM
      1 N1          5.8350   69.5310   65.5080 N.ar      1 MOL        -0.6200 
      2 N2          1.8710   69.3670   66.6920 N.pl3     1 MOL        -0.9000 
      3 C1          6.2180   70.6670   68.9030 C.ar      1 MOL         0.1770 
      4 C2          6.4990   70.2970   67.5970 C.ar      1 MOL        -0.1500 
      5 C3          5.4820   69.9120   66.7390 C.ar      1 MOL         0.3100 
      6 C4          4.8850   69.1440   64.6450 C.ar      1 MOL         0.1665 
      7 C5          5.3940   68.7260   63.2750 C.3       1 MOL         0.1435 
      8 C6          4.4030   67.8220   62.5150 C.3       1 MOL         0.1382 
      9 C7          4.3290   66.4410   63.1470 C.2       1 MOL        -0.2882 
     10 C8          3.3630   66.0640   63.9890 C.2       1 MOL        -0.2764 
     11 C9          2.2430   67.0130   64.4090 C.3       1 MOL         0.1382 
     12 C10         4.3120   63.6670   64.1860 C.3       1 MOL         0.0000 
     13 C11         2.5170   68.4840   64.0120 C.3       1 MOL         0.1435 
     14 C12         3.0240   68.5070   62.5520 C.3       1 MOL         0.0000 
     15 C13         3.5300   69.0840   64.9940 C.ar      1 MOL        -0.1435 
     16 C14         3.1710   69.4620   66.2920 C.ar      1 MOL         0.1000 
     17 C15         4.1540   69.9010   67.1830 C.ar      1 MOL         0.0000 
     18 C16         3.8670   70.2970   68.4990 C.ar      1 MOL        -0.1500 
     19 C17         4.9010   70.6770   69.3520 C.ar      1 MOL        -0.1500 
     20 C18         3.2410   64.6840   64.6170 C.3       1 MOL         0.1382 
     21 Cl1         7.5170   71.0590   69.9660 Cl        1 MOL        -0.1770 
     22 H1          1.1580   69.3820   65.9760 H         1 MOL         0.4000 
     23 H2          1.6270   69.7360   67.6060 H         1 MOL         0.4000 
     24 H3          7.5200   70.2620   67.2280 H         1 MOL         0.1500 
     25 H4          6.3650   68.2340   63.3680 H         1 MOL         0.0000 
     26 H5          5.5700   69.6300   62.6890 H         1 MOL         0.0000 
     27 H6          4.7380   67.7350   61.4770 H         1 MOL         0.0000 
     28 H7          5.1460   65.7810   62.8810 H         1 MOL         0.1500 
     29 H8          2.1030   66.9490   65.4900 H         1 MOL         0.0000 
     30 H9          1.2930   66.6940   63.9780 H         1 MOL         0.0000 
     31 H10         4.1370   62.7160   64.6880 H         1 MOL         0.0000 
     32 H11         5.3020   64.0270   64.4640 H         1 MOL         0.0000 
     33 H12         4.2890   63.4980   63.1080 H         1 MOL         0.0000 
     34 H13         1.5840   69.0500   64.0560 H         1 MOL         0.0000 
     35 H14         2.3230   67.9880   61.8940 H         1 MOL         0.0000 
     36 H15         3.1090   69.5330   62.1880 H         1 MOL         0.0000 
     37 H16         2.8480   70.2880   68.8840 H         1 MOL         0.1500 
     38 H17         4.6810   70.9500   70.3760 H         1 MOL         0.1500 
     39 H18         2.2570   64.2750   64.3830 H         1 MOL         0.0000 
     40 H19         3.2710   64.7810   65.7050 H         1 MOL         0.0000 
@<TRIPOS>BOND
     1    1    5 ar   
     2    1    6 ar   
     3    6   15 ar   
     4    6    7 1    
     5    7    8 1    
     6    8   14 1    
     7    8    9 1    
     8    9   10 2    
     9   10   20 1    
    10   10   11 1    
    11   11   13 1    
    12   13   15 1    
    13   13   14 1    
    14   15   16 ar   
    15   16    2 1    
    16   16   17 ar   
    17   17   18 ar   
    18   17    5 ar   
    19    5    4 ar   
    20    4    3 ar   
    21    3   19 ar   
    22   18   19 ar   
    23   20   12 1    
    24    3   21 1    
    25    2   22 1    
    26    2   23 1    
    27    4   24 1    
    28    7   25 1    
    29    7   26 1    
    30    8   27 1    
    31    9   28 1    
    32   11   29 1    
    33   11   30 1    
    34   12   31 1    
    35   12   32 1    
    36   12   33 1    
    37   13   34 1    
    38   14   35 1    
    39   14   36 1    
    40   18   37 1    
    41   19   38 1    
    42   20   39 1    
    43   20   40 1    
@<TRIPOS>SUBSTRUCTURE
     1 MOL         1 PERM              0 ****  ****    0 ROOT 
@<TRIPOS>NORMAL
@<TRIPOS>ALT_TYPE
MMFF94_ALT_TYPE_SET 
MMFF94 7 CR 8 CR 11 CR 12 CR 13 CR 14 CR 20 CR 3 CB 4 CB 5 CB 6 CB 15 CB \
16 CB 17 CB 18 CB 19 CB 9 C=C 10 C=C 24 HC 25 HC 26 HC \
27 HC 28 HC 29 HC 30 HC 31 HC 32 HC 33 HC 34 HC 35 HC \
36 HC 37 HC 38 HC 39 HC 40 HC 22 HNCC 23 HNCC 1 NPYD \
2 NC=C 21 CL
