#	Name:			3zso_ligand
#	Creating user name:	suminyi
#	Creation time:		Sun Sep 30 06:50:59 2018

#	Modifying user name:	suminyi
#	Modification time:	Sun Sep 30 06:50:59 2018

@<TRIPOS>MOLECULE
3zso_ligand
   78    82     1     1     0
SMALL
MMFF94_CHARGES


@<TRIPOS>ATOM
      1 C1        -11.2540   48.4360    5.5280 C.ar      1 MOL        -0.1500 
      2 C2        -12.1610   49.3200    4.9590 C.ar      1 MOL        -0.1500 
      3 C3        -10.2090   47.9230    4.7650 C.ar      1 MOL        -0.1500 
      4 C4        -12.0180   49.6920    3.6260 C.ar      1 MOL        -0.1500 
      5 C5        -11.2780   45.8870   -1.6370 C.ar      1 MOL        -0.1500 
      6 C6         -7.4630   45.1220   -0.0460 C.ar      1 MOL        -0.1500 
      7 C7         -8.9470   44.1110    1.5530 C.ar      1 MOL        -0.1500 
      8 C8         -5.0230   45.6970    3.4390 C.ar      1 MOL        -0.1500 
      9 C9         -6.7410   44.1380    4.0880 C.ar      1 MOL        -0.1500 
     10 C10       -11.9540   45.1580   -2.6160 C.ar      1 MOL        -0.1500 
     11 C11        -8.0040   44.3270   -1.0530 C.ar      1 MOL        -0.1500 
     12 C12        -9.4940   43.3190    0.5430 C.ar      1 MOL        -0.1500 
     13 C13        -4.1600   45.1420    4.3840 C.ar      1 MOL        -0.1500 
     14 C14        -5.8730   43.5830    5.0230 C.ar      1 MOL        -0.1500 
     15 C15       -10.0360   48.3000    3.4220 C.ar      1 MOL         0.0862 
     16 C16       -13.2840   45.9910   -0.2440 C.ar      1 MOL        -0.1790 
     17 C17        -7.9040   45.0010    1.2710 C.ar      1 MOL        -0.1435 
     18 C18        -6.3240   45.2060    3.2920 C.ar      1 MOL        -0.1435 
     19 C19       -10.9600   49.2020    2.8560 C.ar      1 MOL        -0.1435 
     20 C20       -11.9350   46.3520   -0.4880 C.ar      1 MOL        -0.1435 
     21 C21       -13.3000   44.9190   -2.4130 C.ar      1 MOL         0.0825 
     22 C22       -13.9340   45.2860   -1.2580 C.ar      1 MOL         0.0825 
     23 C23        -9.0150   43.4220   -0.7640 C.ar      1 MOL         0.0825 
     24 C24        -4.5890   44.0980    5.1950 C.ar      1 MOL         0.0825 
     25 C25       -10.0860   50.6990   -1.9030 C.2       1 MOL        -0.3000 
     26 C26       -10.5560   49.5020   -1.5810 C.2       1 MOL        -0.2882 
     27 C27        -8.8810   47.7480    2.6170 C.2       1 MOL         0.5438 
     28 C28       -14.0310   46.3270    1.0190 C.2       1 MOL         0.9790 
     29 C29       -15.4930   44.4790   -2.6950 C.3       1 MOL         0.5600 
     30 C30       -10.0620   41.3530   -1.5980 C.3       1 MOL         0.2800 
     31 C31        -4.1860   42.8270    7.2810 C.3       1 MOL         0.2800 
     32 C32       -10.9230   49.6100    1.3890 C.3       1 MOL         0.6465 
     33 C33       -11.1360   47.2730    0.4260 C.3       1 MOL         0.6465 
     34 C34       -11.8790   49.2870   -0.8830 C.3       1 MOL         0.6412 
     35 C35        -7.2810   45.9030    2.3380 C.3       1 MOL         0.5871 
     36 N36        -8.3060   46.6300    3.0800 N.am      1 MOL        -0.7301 
     37 N37       -11.6980   48.6810    0.4840 N.4       1 MOL        -0.9590 
     38 O38       -15.0210   45.6810    1.2990 O.co2     1 MOL        -0.9000 
     39 O39        -8.4710   48.2210    1.5750 O.2       1 MOL        -0.5700 
     40 O40       -13.5330   47.0660    1.8390 O.co2     1 MOL        -0.9000 
     41 O41       -14.1770   44.3580   -3.2890 O.3       1 MOL        -0.3625 
     42 O42       -15.2560   44.9420   -1.3410 O.3       1 MOL        -0.3625 
     43 O43        -9.5360   42.6800   -1.8030 O.3       1 MOL        -0.3625 
     44 O44        -3.7260   43.6210    6.1630 O.3       1 MOL        -0.3625 
     45 H1        -11.3540   48.1460    6.5750 H         1 MOL         0.1500 
     46 H2        -12.9850   49.7140    5.5530 H         1 MOL         0.1500 
     47 H3         -9.5030   47.2590    5.2580 H         1 MOL         0.1500 
     48 H4        -12.7480   50.3680    3.1820 H         1 MOL         0.1500 
     49 H5        -10.2280   46.1220   -1.7770 H         1 MOL         0.1500 
     50 H6         -6.6970   45.8540   -0.2860 H         1 MOL         0.1500 
     51 H7         -9.3490   44.0380    2.5600 H         1 MOL         0.1500 
     52 H8         -4.6860   46.5390    2.8410 H         1 MOL         0.1500 
     53 H9         -7.7510   43.7500    4.0120 H         1 MOL         0.1500 
     54 H10       -11.4680   44.8290   -3.5290 H         1 MOL         0.1500 
     55 H11        -7.6360   44.4060   -2.0710 H         1 MOL         0.1500 
     56 H12       -10.2950   42.6320    0.7850 H         1 MOL         0.1500 
     57 H13        -3.1580   45.5390    4.5150 H         1 MOL         0.1500 
     58 H14        -6.2230   42.7620    5.6300 H         1 MOL         0.1500 
     59 H15        -9.1100   50.8160   -2.3670 H         1 MOL         0.1500 
     60 H16       -10.6500   51.6030   -1.6780 H         1 MOL         0.1500 
     61 H17        -9.9700   48.6090   -1.7800 H         1 MOL         0.1500 
     62 H18       -15.9990   43.5030   -2.6860 H         1 MOL         0.0000 
     63 H19       -16.0750   45.2330   -3.2470 H         1 MOL         0.0000 
     64 H20       -10.3170   40.9210   -2.5670 H         1 MOL         0.0000 
     65 H21       -10.9610   41.4060   -0.9800 H         1 MOL         0.0000 
     66 H22        -9.3010   40.7360   -1.1120 H         1 MOL         0.0000 
     67 H23        -3.3480   42.6560    7.9600 H         1 MOL         0.0000 
     68 H24        -4.5610   41.8670    6.9180 H         1 MOL         0.0000 
     69 H25        -4.9780   43.3660    7.8080 H         1 MOL         0.0000 
     70 H26        -9.9050   49.6850    1.0110 H         1 MOL         0.0000 
     71 H27       -11.3850   50.5950    1.2910 H         1 MOL         0.0000 
     72 H28       -10.1040   47.3470    0.0780 H         1 MOL         0.0000 
     73 H29       -11.1330   46.8760    1.4440 H         1 MOL         0.0000 
     74 H30       -12.5170   48.6140   -1.4620 H         1 MOL         0.0000 
     75 H31       -12.4010   50.2390   -0.7530 H         1 MOL         0.0000 
     76 H32        -6.6880   46.6580    1.8110 H         1 MOL         0.0000 
     77 H33        -8.7110   46.1770    3.8850 H         1 MOL         0.3700 
     78 H34       -12.6320   48.5830    0.9370 H         1 MOL         0.4500 
@<TRIPOS>BOND
     1    1    2 ar   
     2    3    1 ar   
     3    4    2 ar   
     4   15    3 ar   
     5   19    4 ar   
     6    5   10 ar   
     7   20    5 ar   
     8    6   11 ar   
     9   17    6 ar   
    10    7   12 ar   
    11   17    7 ar   
    12    8   13 ar   
    13   18    8 ar   
    14    9   14 ar   
    15   18    9 ar   
    16   10   21 ar   
    17   11   23 ar   
    18   12   23 ar   
    19   13   24 ar   
    20   14   24 ar   
    21   15   19 ar   
    22   27   15 1    
    23   20   16 ar   
    24   16   22 ar   
    25   16   28 1    
    26   35   17 1    
    27   35   18 1    
    28   19   32 1    
    29   33   20 1    
    30   22   21 ar   
    31   21   41 1    
    32   22   42 1    
    33   23   43 1    
    34   24   44 1    
    35   26   25 2    
    36   34   26 1    
    37   36   27 am   
    38   27   39 2    
    39   28   38 ar   
    40   28   40 ar   
    41   29   41 1    
    42   42   29 1    
    43   43   30 1    
    44   44   31 1    
    45   32   37 1    
    46   37   33 1    
    47   37   34 1    
    48   35   36 1    
    49    1   45 1    
    50    2   46 1    
    51    3   47 1    
    52    4   48 1    
    53    5   49 1    
    54    6   50 1    
    55    7   51 1    
    56    8   52 1    
    57    9   53 1    
    58   10   54 1    
    59   11   55 1    
    60   12   56 1    
    61   13   57 1    
    62   14   58 1    
    63   25   59 1    
    64   25   60 1    
    65   26   61 1    
    66   29   62 1    
    67   29   63 1    
    68   30   64 1    
    69   30   65 1    
    70   30   66 1    
    71   31   67 1    
    72   31   68 1    
    73   31   69 1    
    74   32   70 1    
    75   32   71 1    
    76   33   72 1    
    77   33   73 1    
    78   34   74 1    
    79   34   75 1    
    80   35   76 1    
    81   36   77 1    
    82   37   78 1    
@<TRIPOS>SUBSTRUCTURE
     1 MOL         1 PERM              0 ****  ****    0 ROOT 
@<TRIPOS>NORMAL
@<TRIPOS>ALT_TYPE
MMFF94_ALT_TYPE_SET 
MMFF94 29 CR 30 CR 31 CR 32 CR 33 CR 34 CR 35 CR 1 CB 2 CB 3 CB 4 CB \
5 CB 6 CB 7 CB 8 CB 9 CB 10 CB 11 CB 12 CB 13 CB 14 CB \
15 CB 16 CB 17 CB 18 CB 19 CB 20 CB 21 CB 22 CB 23 CB \
24 CB 28 CO2M 27 C=ON 25 C=C 26 C=C 45 HC 46 HC 47 HC \
48 HC 49 HC 50 HC 51 HC 52 HC 53 HC 54 HC 55 HC 56 HC \
57 HC 58 HC 59 HC 60 HC 61 HC 62 HC 63 HC 64 HC 65 HC \
66 HC 67 HC 68 HC 69 HC 70 HC 71 HC 72 HC 73 HC 74 HC \
75 HC 76 HC 77 HNCO 78 HNR+ 38 O2CM 40 O2CM 39 O=CN 41 OC=C \
42 OC=C 43 OC=C 44 OC=C 37 NR+ 36 NC=O 
