#	Name:			2qnq_ligand
#	Creating user name:	suminyi
#	Creation time:		Sun Sep 30 06:51:00 2018

#	Modifying user name:	suminyi
#	Modification time:	Sun Sep 30 06:51:00 2018

@<TRIPOS>MOLECULE
2qnq_ligand
   71    75     1     1     0
SMALL
MMFF94_CHARGES


@<TRIPOS>ATOM
      1 C2        -15.0750   23.4070   -1.5950 C.ar      1 MOL        -0.1500 
      2 C6        -13.8950   23.6540   -2.2880 C.ar      1 MOL        -0.1500 
      3 C5        -13.8480   23.4330   -3.6630 C.ar      1 MOL        -0.1500 
      4 C20       -14.9680   22.9520   -4.3360 C.ar      1 MOL         0.1770 
      5 C27       -16.1580   22.7090   -3.6480 C.ar      1 MOL        -0.0090 
      6 S9        -17.6250   22.1040   -4.4750 S.o2      1 MOL         1.4470 
      7 N32       -17.5780   20.4250   -4.4320 N.am      1 MOL        -0.8494 
      8 C24       -16.6620   19.7180   -5.3700 C.3       1 MOL         0.3557 
      9 C23       -17.2100   18.3120   -5.7490 C.3       1 MOL         0.3557 
     10 N28       -17.2310   18.0450   -7.2190 N.am      1 MOL        -0.8494 
     11 S8        -18.6300   18.5240   -8.0260 S.o2      1 MOL         1.4470 
     12 O10       -19.0240   19.7860   -7.4030 O.2       1 MOL        -0.6500 
     13 O41       -18.3650   18.5040   -9.4570 O.2       1 MOL        -0.6500 
     14 C26       -19.8390   17.2370   -7.7510 C.ar      1 MOL        -0.0090 
     15 C19       -20.9780   17.5210   -6.9900 C.ar      1 MOL        -0.1500 
     16 C3        -21.9790   16.5600   -6.8470 C.ar      1 MOL        -0.1500 
     17 C4        -21.8550   15.3190   -7.4710 C.ar      1 MOL        -0.1500 
     18 C1        -20.7210   15.0390   -8.2250 C.ar      1 MOL        -0.1500 
     19 C17       -19.7100   15.9850   -8.3580 C.ar      1 MOL         0.1770 
     20 Cl1       -18.3240   15.5470   -9.2880 Cl        1 MOL        -0.1770 
     21 C7        -15.9560   18.0210   -7.9900 C.3       1 MOL         0.4992 
     22 C12       -15.1880   19.3340   -8.2280 C.ar      1 MOL        -0.1435 
     23 C13       -15.6870   20.3210   -9.0820 C.ar      1 MOL        -0.1500 
     24 C29       -14.9290   21.4460   -9.4070 C.ar      1 MOL        -0.1500 
     25 C31       -13.6410   21.5930   -8.9010 C.ar      1 MOL        -0.1500 
     26 C30       -13.1200   20.6140   -8.0610 C.ar      1 MOL        -0.1500 
     27 C14       -13.8880   19.4990   -7.7320 C.ar      1 MOL        -0.1500 
     28 C21       -16.3410   17.3260   -4.9470 C.3       1 MOL         0.5030 
     29 N22       -15.0310   17.9840   -4.6310 N.4       1 MOL        -0.9060 
     30 C25       -15.2660   19.4670   -4.7370 C.3       1 MOL         0.5030 
     31 C33       -17.8770   19.7860   -3.1330 C.3       1 MOL         0.4992 
     32 C34       -19.1910   19.0170   -3.1350 C.ar      1 MOL        -0.1435 
     33 C35       -20.3160   19.5100   -3.7980 C.ar      1 MOL        -0.1500 
     34 C36       -21.5320   18.8360   -3.7320 C.ar      1 MOL        -0.1500 
     35 C37       -21.6220   17.6380   -3.0280 C.ar      1 MOL        -0.1500 
     36 C39       -20.4960   17.1200   -2.3910 C.ar      1 MOL        -0.1500 
     37 C38       -19.2870   17.8130   -2.4370 C.ar      1 MOL        -0.1500 
     38 O11       -17.8100   22.5230   -5.8630 O.2       1 MOL        -0.6500 
     39 O40       -18.7960   22.4140   -3.6520 O.2       1 MOL        -0.6500 
     40 C18       -16.2080   22.9600   -2.2730 C.ar      1 MOL        -0.1500 
     41 Cl3       -14.8010   22.6560   -6.0260 Cl        1 MOL        -0.1770 
     42 H1        -15.1100   23.5530   -0.5170 H         1 MOL         0.1500 
     43 H2        -13.0100   24.0070   -1.7580 H         1 MOL         0.1500 
     44 H3        -12.9330   23.6210   -4.2180 H         1 MOL         0.1500 
     45 H4        -16.5550   20.3050   -6.2880 H         1 MOL         0.0000 
     46 H5        -18.2310   18.2080   -5.3730 H         1 MOL         0.0000 
     47 H6        -21.0950   18.5020   -6.5240 H         1 MOL         0.1500 
     48 H7        -22.8660   16.7840   -6.2610 H         1 MOL         0.1500 
     49 H8        -22.6380   14.5650   -7.3870 H         1 MOL         0.1500 
     50 H9        -20.6400   14.0820   -8.7360 H         1 MOL         0.1500 
     51 H10       -16.1690   17.5670   -8.9530 H         1 MOL         0.0000 
     52 H11       -15.3010   17.3050   -7.5170 H         1 MOL         0.0000 
     53 H12       -16.6530   20.1920   -9.5430 H         1 MOL         0.1500 
     54 H13       -15.3330   22.1950  -10.0810 H         1 MOL         0.1500 
     55 H14       -13.0450   22.4630   -9.1650 H         1 MOL         0.1500 
     56 H15       -12.1090   20.7080   -7.6650 H         1 MOL         0.1500 
     57 H16       -13.4310   18.7410   -7.1100 H         1 MOL         0.1500 
     58 H17       -16.1510   16.3990   -5.4920 H         1 MOL         0.0000 
     59 H18       -16.8260   17.0960   -3.9940 H         1 MOL         0.0000 
     60 H19       -14.3030   17.5950   -5.2890 H         1 MOL         0.4500 
     61 H20       -14.6330   17.6900   -3.6890 H         1 MOL         0.4500 
     62 H21       -15.2230   19.8740   -3.7210 H         1 MOL         0.0000 
     63 H22       -14.4640   19.9090   -5.3330 H         1 MOL         0.0000 
     64 H23       -17.9570   20.5600   -2.3740 H         1 MOL         0.0000 
     65 H24       -17.0580   19.1330   -2.8220 H         1 MOL         0.0000 
     66 H25       -20.2500   20.4280   -4.3750 H         1 MOL         0.1500 
     67 H26       -22.4000   19.2410   -4.2480 H         1 MOL         0.1500 
     68 H27       -22.5650   17.1040   -2.9970 H         1 MOL         0.1500 
     69 H28       -20.5470   16.1680   -1.8670 H         1 MOL         0.1500 
     70 H29       -18.4090   17.4050   -1.9370 H         1 MOL         0.1500 
     71 H30       -17.1330   22.8010   -1.7210 H         1 MOL         0.1500 
@<TRIPOS>BOND
     1    1    2 ar   
     2    1   40 ar   
     3    2    3 ar   
     4    3    4 ar   
     5    4    5 ar   
     6    4   41 1    
     7    5    6 1    
     8    5   40 ar   
     9    6    7 am   
    10    6   38 2    
    11    6   39 2    
    12    7    8 1    
    13    7   31 1    
    14    8    9 1    
    15    8   30 1    
    16    9   10 1    
    17    9   28 1    
    18   10   11 am   
    19   10   21 1    
    20   11   12 2    
    21   11   13 2    
    22   11   14 1    
    23   14   15 ar   
    24   14   19 ar   
    25   15   16 ar   
    26   16   17 ar   
    27   17   18 ar   
    28   18   19 ar   
    29   19   20 1    
    30   21   22 1    
    31   22   23 ar   
    32   22   27 ar   
    33   23   24 ar   
    34   24   25 ar   
    35   25   26 ar   
    36   26   27 ar   
    37   28   29 1    
    38   29   30 1    
    39   31   32 1    
    40   32   33 ar   
    41   32   37 ar   
    42   33   34 ar   
    43   34   35 ar   
    44   35   36 ar   
    45   36   37 ar   
    46    1   42 1    
    47    2   43 1    
    48    3   44 1    
    49    8   45 1    
    50    9   46 1    
    51   15   47 1    
    52   16   48 1    
    53   17   49 1    
    54   18   50 1    
    55   21   51 1    
    56   21   52 1    
    57   23   53 1    
    58   24   54 1    
    59   25   55 1    
    60   26   56 1    
    61   27   57 1    
    62   28   58 1    
    63   28   59 1    
    64   29   60 1    
    65   29   61 1    
    66   30   62 1    
    67   30   63 1    
    68   31   64 1    
    69   31   65 1    
    70   33   66 1    
    71   34   67 1    
    72   35   68 1    
    73   36   69 1    
    74   37   70 1    
    75   40   71 1    
@<TRIPOS>SUBSTRUCTURE
     1 MOL         1 PERM              0 ****  ****    0 ROOT 
@<TRIPOS>NORMAL
@<TRIPOS>ALT_TYPE
MMFF94_ALT_TYPE_SET 
MMFF94 8 CR 9 CR 21 CR 28 CR 30 CR 31 CR 1 CB 2 CB 3 CB 4 CB 5 CB 14 CB \
15 CB 16 CB 17 CB 18 CB 19 CB 22 CB 23 CB 24 CB 25 CB \
26 CB 27 CB 32 CB 33 CB 34 CB 35 CB 36 CB 37 CB 40 CB \
42 HC 43 HC 44 HC 45 HC 46 HC 47 HC 48 HC 49 HC 50 HC \
51 HC 52 HC 53 HC 54 HC 55 HC 56 HC 57 HC 58 HC 59 HC \
62 HC 63 HC 64 HC 65 HC 66 HC 67 HC 68 HC 69 HC 70 HC \
71 HC 60 HNR+ 61 HNR+ 38 O2S 39 O2S 12 O2S 13 O2S 29 NR+ \
7 NSO2 10 NSO2 6 SO2N 11 SO2N 20 CL 41 CL 
