#	Name:			2qnq_ligand
#	Creating user name:	suminyi
#	Creation time:		Sun Sep 30 06:48:38 2018

#	Modifying user name:	suminyi
#	Modification time:	Sun Sep 30 06:48:38 2018

@<TRIPOS>MOLECULE
2qnq_ligand
   71    75     1     1     0
SMALL
MMFF94_CHARGES


@<TRIPOS>ATOM
      1 C2        -14.7370   23.2240   -1.7640 C.ar      1 QN3        -0.1500 
      2 C6        -13.6490   23.6870   -2.5430 C.ar      1 QN3        -0.1500 
      3 C5        -13.7490   23.6880   -3.9560 C.ar      1 QN3        -0.1500 
      4 C20       -14.9340   23.2330   -4.6060 C.ar      1 QN3         0.1770 
      5 C27       -16.0490   22.7610   -3.8340 C.ar      1 QN3        -0.0090 
      6 S9        -17.6440   22.1560   -4.4740 S.o2      1 QN3         1.4470 
      7 N32       -17.3770   20.4350   -4.1040 N.am      1 QN3        -0.8494 
      8 C24       -16.4990   19.6960   -5.0680 C.3       1 QN3         0.3557 
      9 C23       -17.1200   18.3860   -5.6960 C.3       1 QN3         0.3557 
     10 N28       -17.0730   18.3830   -7.1910 N.am      1 QN3        -0.8494 
     11 S8        -18.5450   18.7020   -8.0640 S.o2      1 QN3         1.4470 
     12 O10       -19.0970   19.9320   -7.5320 O.2       1 QN3        -0.6500 
     13 O41       -18.2240   18.6930   -9.4900 O.2       1 QN3        -0.6500 
     14 C26       -19.7460   17.3730   -7.8620 C.ar      1 QN3        -0.0090 
     15 C19       -20.9680   17.6690   -7.1920 C.ar      1 QN3        -0.1500 
     16 C3        -21.9690   16.6720   -7.0090 C.ar      1 QN3        -0.1500 
     17 C4        -21.7560   15.3520   -7.5020 C.ar      1 QN3        -0.1500 
     18 C1        -20.5420   15.0360   -8.1760 C.ar      1 QN3        -0.1500 
     19 C17       -19.5360   16.0350   -8.3600 C.ar      1 QN3         0.1770 
     20 CL1       -18.0790   15.5790   -9.2030 Cl        1 QN3        -0.1770 
     21 C7        -15.8450   18.0910   -7.9740 C.3       1 QN3         0.4992 
     22 C12       -14.9580   19.3250   -8.2840 C.ar      1 QN3        -0.1435 
     23 C13       -15.4980   20.4470   -8.9850 C.ar      1 QN3        -0.1500 
     24 C29       -14.6860   21.5770   -9.2820 C.ar      1 QN3        -0.1500 
     25 C31       -13.3200   21.6000   -8.8780 C.ar      1 QN3        -0.1500 
     26 C30       -12.7710   20.4890   -8.1770 C.ar      1 QN3        -0.1500 
     27 C14       -13.5860   19.3620   -7.8840 C.ar      1 QN3        -0.1500 
     28 C21       -16.3310   17.2600   -4.9760 C.3       1 QN3         0.5030 
     29 N22       -14.9820   17.8160   -4.7060 N.4       1 QN3        -0.9060 
     30 C25       -15.1360   19.2670   -4.4520 C.3       1 QN3         0.5030 
     31 C33       -18.0090   19.8160   -2.9120 C.3       1 QN3         0.4992 
     32 C34       -19.3980   19.1890   -3.0370 C.ar      1 QN3        -0.1435 
     33 C35       -20.3680   19.7000   -3.9380 C.ar      1 QN3        -0.1500 
     34 C36       -21.6560   19.0940   -4.0180 C.ar      1 QN3        -0.1500 
     35 C37       -21.9810   17.9720   -3.1970 C.ar      1 QN3        -0.1500 
     36 C39       -21.0110   17.4580   -2.2940 C.ar      1 QN3        -0.1500 
     37 C38       -19.7270   18.0660   -2.2160 C.ar      1 QN3        -0.1500 
     38 O11       -17.7330   22.2250   -5.9260 O.2       1 QN3        -0.6500 
     39 O40       -18.5820   22.7870   -3.5540 O.2       1 QN3        -0.6500 
     40 C18       -15.9210   22.7670   -2.4050 C.ar      1 QN3        -0.1500 
     41 CL3       -14.9550   23.2720   -6.3270 Cl        1 QN3        -0.1770 
     42 H1        -14.6675   23.2180   -0.6822 H         1 QN3         0.1500 
     43 H2        -12.7443   24.0389   -2.0606 H         1 QN3         0.1500 
     44 H3        -12.9138   24.0392   -4.5511 H         1 QN3         0.1500 
     45 H4        -16.2953   20.3946   -5.8929 H         1 QN3         0.0000 
     46 H5        -18.1800   18.3102   -5.4121 H         1 QN3         0.0000 
     47 H6        -21.1391   18.6707   -6.8147 H         1 QN3         0.1500 
     48 H7        -22.8916   16.9172   -6.4954 H         1 QN3         0.1500 
     49 H8        -22.5156   14.5910   -7.3644 H         1 QN3         0.1500 
     50 H9        -20.3797   14.0322   -8.5517 H         1 QN3         0.1500 
     51 H10       -16.1488   17.6400   -8.9302 H         1 QN3         0.0000 
     52 H11       -15.2401   17.3702   -7.4044 H         1 QN3         0.0000 
     53 H12       -16.5371   20.4371   -9.2937 H         1 QN3         0.1500 
     54 H13       -15.1071   22.4211   -9.8161 H         1 QN3         0.1500 
     55 H14       -12.7006   22.4606   -9.1036 H         1 QN3         0.1500 
     56 H15       -11.7324   20.5026   -7.8670 H         1 QN3         0.1500 
     57 H16       -13.1616   18.5194   -7.3502 H         1 QN3         0.1500 
     58 H17       -16.2566   16.3723   -5.6213 H         1 QN3         0.0000 
     59 H18       -16.8280   16.9874   -4.0333 H         1 QN3         0.0000 
     60 H19       -14.3839   17.6687   -5.5039 H         1 QN3         0.4500 
     61 H20       -14.5808   17.3667   -3.8978 H         1 QN3         0.4500 
     62 H21       -15.1324   19.4632   -3.3697 H         1 QN3         0.0000 
     63 H22       -14.3148   19.8228   -4.9282 H         1 QN3         0.0000 
     64 H23       -18.0798   20.6001   -2.1438 H         1 QN3         0.0000 
     65 H24       -17.3300   19.0231   -2.5652 H         1 QN3         0.0000 
     66 H25       -20.1296   20.5512   -4.5655 H         1 QN3         0.1500 
     67 H26       -22.3941   19.4880   -4.7073 H         1 QN3         0.1500 
     68 H27       -22.9617   17.5148   -3.2619 H         1 QN3         0.1500 
     69 H28       -21.2486   16.6061   -1.6672 H         1 QN3         0.1500 
     70 H29       -18.9894   17.6729   -1.5257 H         1 QN3         0.1500 
     71 H30       -16.7476   22.4143   -1.7989 H         1 QN3         0.1500 
@<TRIPOS>BOND
     1    1    2 ar   
     2    1   40 ar   
     3    2    3 ar   
     4    3    4 ar   
     5    4    5 ar   
     6    4   41 1    
     7    5    6 1    
     8    5   40 ar   
     9    6    7 am   
    10    6   38 2    
    11    6   39 2    
    12    7    8 1    
    13    7   31 1    
    14    8    9 1    
    15    8   30 1    
    16    9   10 1    
    17    9   28 1    
    18   10   11 am   
    19   10   21 1    
    20   11   12 2    
    21   11   13 2    
    22   11   14 1    
    23   14   15 ar   
    24   14   19 ar   
    25   15   16 ar   
    26   16   17 ar   
    27   17   18 ar   
    28   18   19 ar   
    29   19   20 1    
    30   21   22 1    
    31   22   23 ar   
    32   22   27 ar   
    33   23   24 ar   
    34   24   25 ar   
    35   25   26 ar   
    36   26   27 ar   
    37   28   29 1    
    38   29   30 1    
    39   31   32 1    
    40   32   33 ar   
    41   32   37 ar   
    42   33   34 ar   
    43   34   35 ar   
    44   35   36 ar   
    45   36   37 ar   
    46    1   42 1    
    47    2   43 1    
    48    3   44 1    
    49    8   45 1    
    50    9   46 1    
    51   15   47 1    
    52   16   48 1    
    53   17   49 1    
    54   18   50 1    
    55   21   51 1    
    56   21   52 1    
    57   23   53 1    
    58   24   54 1    
    59   25   55 1    
    60   26   56 1    
    61   27   57 1    
    62   28   58 1    
    63   28   59 1    
    64   29   60 1    
    65   29   61 1    
    66   30   62 1    
    67   30   63 1    
    68   31   64 1    
    69   31   65 1    
    70   33   66 1    
    71   34   67 1    
    72   35   68 1    
    73   36   69 1    
    74   37   70 1    
    75   40   71 1    
@<TRIPOS>SUBSTRUCTURE
     1 QN3         1 PERM              0 ****  ****    0 ROOT 
@<TRIPOS>NORMAL
@<TRIPOS>ALT_TYPE
MMFF94_ALT_TYPE_SET 
MMFF94 8 CR 9 CR 21 CR 28 CR 30 CR 31 CR 1 CB 2 CB 3 CB 4 CB 5 CB 14 CB \
15 CB 16 CB 17 CB 18 CB 19 CB 22 CB 23 CB 24 CB 25 CB \
26 CB 27 CB 32 CB 33 CB 34 CB 35 CB 36 CB 37 CB 40 CB \
42 HC 43 HC 44 HC 45 HC 46 HC 47 HC 48 HC 49 HC 50 HC \
51 HC 52 HC 53 HC 54 HC 55 HC 56 HC 57 HC 58 HC 59 HC \
62 HC 63 HC 64 HC 65 HC 66 HC 67 HC 68 HC 69 HC 70 HC \
71 HC 60 HNR+ 61 HNR+ 38 O2S 39 O2S 12 O2S 13 O2S 29 NR+ \
7 NSO2 10 NSO2 6 SO2N 11 SO2N 20 CL 41 CL 
