#	Name:			3gc5_ligand
#	Creating user name:	suminyi
#	Creation time:		Sun Sep 30 06:51:01 2018

#	Modifying user name:	suminyi
#	Modification time:	Sun Sep 30 06:51:01 2018

@<TRIPOS>MOLECULE
3gc5_ligand
   36    38     1     1     0
SMALL
MMFF94_CHARGES


@<TRIPOS>ATOM
      1 C2         17.9360   17.0660   23.1690 C.2       1 MOL         0.5438 
      2 O19        18.9670   17.4270   23.6940 O.2       1 MOL        -0.5700 
      3 N3         16.9030   16.7200   23.9110 N.am      1 MOL        -0.4900 
      4 C4         15.7720   16.2570   23.3650 C.2       1 MOL         0.5600 
      5 N20        14.7930   15.9460   24.2030 N.pl3     1 MOL        -0.8500 
      6 N5         15.5210   16.1470   22.0690 N.2       1 MOL        -0.6290 
      7 C6         16.4900   16.5530   21.2260 C.ar      1 MOL         0.1790 
      8 C10        16.2210   16.5390   19.8430 C.ar      1 MOL        -0.1435 
      9 C16        14.9190   16.0340   19.2580 C.3       1 MOL         0.1435 
     10 C17        15.1100   14.5490   18.9360 C.3       1 MOL         0.5030 
     11 N18        13.9650   13.9250   18.1930 N.4       1 MOL        -0.8530 
     12 C9         17.2050   16.9680   18.9650 C.ar      1 MOL         0.2272 
     13 N11        17.1040   17.0750   17.6310 N.2       1 MOL        -0.5653 
     14 C12        18.3190   17.5580   17.3200 C.2       1 MOL         0.2705 
     15 N14        18.6720   17.9430   16.0740 N.pl3     1 MOL        -0.8531 
     16 C15        17.8630   17.6420   14.9000 C.3       1 MOL         0.3691 
     17 N13        19.1590   17.7260   18.3850 N.pl3     1 MOL         0.0332 
     18 C8         18.4170   17.3660   19.4340 C.ar      1 MOL        -0.1516 
     19 C7         18.7260   17.4070   20.7880 C.ar      1 MOL        -0.1500 
     20 C1         17.7320   17.0070   21.6960 C.ar      1 MOL         0.0862 
     21 H2         13.9780   15.4480   23.8210 H         1 MOL         0.4000 
     22 H3         14.8060   16.2450   25.1890 H         1 MOL         0.4000 
     23 H5         14.6840   16.5950   18.3510 H         1 MOL         0.0000 
     24 H6         14.0940   16.2030   19.9440 H         1 MOL         0.0000 
     25 H7         15.2460   13.9960   19.8690 H         1 MOL         0.0000 
     26 H8         16.0140   14.4370   18.3280 H         1 MOL         0.0000 
     27 H9         14.2660   13.0670   17.6480 H         1 MOL         0.4500 
     28 H10        13.6010   14.5720   17.4890 H         1 MOL         0.4500 
     29 H11        13.2130   13.6890   18.8600 H         1 MOL         0.4500 
     30 H12        19.5860   18.3790   15.9550 H         1 MOL         0.4000 
     31 H13        18.4610   17.7650   13.9940 H         1 MOL         0.0000 
     32 H14        17.0050   18.3190   14.8650 H         1 MOL         0.0000 
     33 H15        17.4960   16.6130   14.9400 H         1 MOL         0.0000 
     34 H16        20.1580   17.8750   18.3240 H         1 MOL         0.2700 
     35 H17        19.6960   17.7700   21.1140 H         1 MOL         0.1500 
     36 H1         16.9590   16.7710   24.9200 H         1 MOL         0.3700 
@<TRIPOS>BOND
     1    1    2 2    
     2    1    3 am   
     3    1   20 1    
     4    3    4 am   
     5    4    5 1    
     6    4    6 2    
     7    6    7 1    
     8    7    8 ar   
     9    7   20 ar   
    10    8    9 1    
    11    8   12 ar   
    12    9   10 1    
    13   10   11 1    
    14   12   13 1    
    15   12   18 ar   
    16   13   14 2    
    17   14   15 1    
    18   14   17 1    
    19   15   16 1    
    20   17   18 1    
    21   18   19 ar   
    22   19   20 ar   
    23    5   21 1    
    24    5   22 1    
    25    9   23 1    
    26    9   24 1    
    27   10   25 1    
    28   10   26 1    
    29   11   27 1    
    30   11   28 1    
    31   11   29 1    
    32   15   30 1    
    33   16   31 1    
    34   16   32 1    
    35   16   33 1    
    36   17   34 1    
    37   19   35 1    
    38    3   36 1    
@<TRIPOS>SUBSTRUCTURE
     1 MOL         1 PERM              0 ****  ****    0 ROOT 
@<TRIPOS>NORMAL
@<TRIPOS>ALT_TYPE
MMFF94_ALT_TYPE_SET 
MMFF94 9 CR 10 CR 16 CR 14 C5A 18 C5A 12 C5B 7 CB 8 CB 19 CB 20 CB 4 CGD \
1 C=ON 23 HC 24 HC 25 HC 26 HC 31 HC 32 HC 33 HC 35 HC \
34 HPYL 36 HNCN 21 HNCN 22 HNCN 30 HNCN 27 HNR+ 28 HNR+ \
29 HNR+ 2 O=CN 17 NPYL 13 N5B 6 N=C 11 NR+ 3 NC=O 5 NC=N \
15 NC=N 
