#	Name:			4f3c_ligand
#	Creating user name:	suminyi
#	Creation time:		Sun Sep 30 06:51:04 2018

#	Modifying user name:	suminyi
#	Modification time:	Sun Sep 30 06:51:04 2018

@<TRIPOS>MOLECULE
4f3c_ligand
   49    51     1     1     0
SMALL
MMFF94_CHARGES


@<TRIPOS>ATOM
      1 C2        -34.3800   -6.0070    6.7990 C.ar      1 MOL         0.4700 
      2 C5        -36.9120   -5.4790    6.3030 C.ar      1 MOL        -0.1516 
      3 C4        -36.1940   -4.7430    7.1720 C.ar      1 MOL         0.2560 
      4 C8        -38.2960   -3.9630    7.1170 C.2       1 MOL        -0.3016 
      5 O3'       -34.0740    0.4460    8.8340 O.3       1 MOL        -0.6800 
      6 C3'       -34.0250   -0.5950    7.8540 C.3       1 MOL         0.2800 
      7 C4'       -35.1030   -0.3120    6.7870 C.3       1 MOL         0.0000 
      8 C5'       -34.8120   -1.0750    5.4770 C.3       1 MOL         0.2300 
      9 S5'       -33.4860   -0.3390    4.4650 S.3       1 MOL        -0.4600 
     10 C20       -34.3850    0.9990    3.6020 C.3       1 MOL         0.2300 
     11 C21       -33.4760    1.7290    2.5950 C.3       1 MOL         0.0000 
     12 C22       -34.0660    3.0540    2.0700 C.3       1 MOL         0.0000 
     13 C23       -35.3020    2.8420    1.1780 C.3       1 MOL         0.0000 
     14 C1'       -36.4010   -0.8680    7.4070 C.3       1 MOL         0.5030 
     15 N1'       -36.0190   -1.6510    8.6370 N.4       1 MOL        -0.9590 
     16 C2'       -34.5340   -1.8710    8.5210 C.3       1 MOL         0.5030 
     17 C10       -36.8270   -2.8910    8.9120 C.3       1 MOL         0.6840 
     18 N7        -38.1820   -5.0170    6.2150 N.pl3     1 MOL         0.0332 
     19 C6        -36.2880   -6.5270    5.6720 C.ar      1 MOL         0.4100 
     20 N6        -36.9060   -7.3360    4.8070 N.pl3     1 MOL        -0.9000 
     21 N3        -34.9140   -4.9540    7.4610 N.ar      1 MOL        -0.5660 
     22 C9        -37.0630   -3.7630    7.7100 C.2       1 MOL        -0.1810 
     23 N1        -35.0050   -6.8120    5.9050 N.ar      1 MOL        -0.6200 
     24 H1        -33.3340   -6.2250    7.0010 H         1 MOL         0.1500 
     25 H2        -39.2530   -3.4940    7.3020 H         1 MOL         0.1500 
     26 H3        -33.3510    0.3080    9.5460 H         1 MOL         0.4000 
     27 H4        -33.0240   -0.7100    7.4260 H         1 MOL         0.0000 
     28 H5        -35.1990    0.7590    6.5950 H         1 MOL         0.0000 
     29 H6        -35.7170   -1.1270    4.8630 H         1 MOL         0.0000 
     30 H7        -34.5160   -2.0920    5.7390 H         1 MOL         0.0000 
     31 H8        -34.7570    1.7070    4.3480 H         1 MOL         0.0000 
     32 H9        -35.2410    0.5650    3.0760 H         1 MOL         0.0000 
     33 H10       -33.2480    1.0660    1.7590 H         1 MOL         0.0000 
     34 H11       -32.5350    1.9560    3.0870 H         1 MOL         0.0000 
     35 H12       -33.3010    3.5700    1.4840 H         1 MOL         0.0000 
     36 H13       -34.3220    3.7050    2.9100 H         1 MOL         0.0000 
     37 H14       -35.6740    3.8030    0.8140 H         1 MOL         0.0000 
     38 H15       -36.1060    2.3570    1.7280 H         1 MOL         0.0000 
     39 H16       -35.0550    2.2230    0.3130 H         1 MOL         0.0000 
     40 H17       -36.9170   -1.5310    6.7090 H         1 MOL         0.0000 
     41 H18       -37.0670   -0.0580    7.7210 H         1 MOL         0.0000 
     42 H19       -36.1360   -0.9610    9.4100 H         1 MOL         0.4500 
     43 H20       -34.0920   -2.0200    9.5110 H         1 MOL         0.0000 
     44 H21       -34.3490   -2.7360    7.8820 H         1 MOL         0.0000 
     45 H22       -37.8000   -2.5650    9.2910 H         1 MOL         0.0000 
     46 H23       -36.3180   -3.4750    9.6810 H         1 MOL         0.0000 
     47 H24       -38.9310   -5.3500    5.5860 H         1 MOL         0.2700 
     48 H25       -36.3240   -7.8020    4.1260 H         1 MOL         0.4000 
     49 H26       -37.8870   -7.1540    4.5630 H         1 MOL         0.4000 
@<TRIPOS>BOND
     1   21    1 ar   
     2    1   23 ar   
     3    3    2 ar   
     4   18    2 1    
     5    2   19 ar   
     6    3   21 ar   
     7   22    3 1    
     8    4   18 1    
     9   22    4 2    
    10    6    5 1    
    11    6    7 1    
    12   16    6 1    
    13    7    8 1    
    14   14    7 1    
    15    8    9 1    
    16    9   10 1    
    17   10   11 1    
    18   11   12 1    
    19   12   13 1    
    20   15   14 1    
    21   15   16 1    
    22   17   15 1    
    23   17   22 1    
    24   19   20 1    
    25   19   23 ar   
    26    1   24 1    
    27    4   25 1    
    28    5   26 1    
    29    6   27 1    
    30    7   28 1    
    31    8   29 1    
    32    8   30 1    
    33   10   31 1    
    34   10   32 1    
    35   11   33 1    
    36   11   34 1    
    37   12   35 1    
    38   12   36 1    
    39   13   37 1    
    40   13   38 1    
    41   13   39 1    
    42   14   40 1    
    43   14   41 1    
    44   15   42 1    
    45   16   43 1    
    46   16   44 1    
    47   17   45 1    
    48   17   46 1    
    49   18   47 1    
    50   20   48 1    
    51   20   49 1    
@<TRIPOS>SUBSTRUCTURE
     1 MOL         1 PERM              0 ****  ****    0 ROOT 
@<TRIPOS>NORMAL
@<TRIPOS>ALT_TYPE
MMFF94_ALT_TYPE_SET 
MMFF94 6 CR 7 CR 8 CR 10 CR 11 CR 12 CR 13 CR 14 CR 16 CR 17 CR 4 C5A \
2 C5A 22 C5B 3 C5B 1 CB 19 CB 24 HC 25 HC 27 HC 28 HC \
29 HC 30 HC 31 HC 32 HC 33 HC 34 HC 35 HC 36 HC 37 HC \
38 HC 39 HC 40 HC 41 HC 43 HC 44 HC 45 HC 46 HC 47 HPYL \
48 HNCC 49 HNCC 42 HNR+ 26 HOR 5 OR 21 NPYD 23 NPYD \
18 NPYL 15 NR+ 20 NC=N 9 S 
