#	Name:			1s38_ligand
#	Creating user name:	suminyi
#	Creation time:		Sun Sep 30 06:49:06 2018

#	Modifying user name:	suminyi
#	Modification time:	Sun Sep 30 06:49:06 2018

@<TRIPOS>MOLECULE
1s38_ligand
   22    23     1     1     0
SMALL
MMFF94_CHARGES


@<TRIPOS>ATOM
      1 C1         17.1110   16.7670   18.7770 C.ar      1 MAQ        -0.1500 
      2 C2         16.0680   16.4780   19.7180 C.ar      1 MAQ        -0.1435 
      3 C9         14.6910   15.9090   19.2960 C.3       1 MAQ         0.1435 
      4 C3         16.3090   16.7310   21.1290 C.ar      1 MAQ         0.1790 
      5 N3         15.3370   16.4740   22.0920 N.2       1 MAQ        -0.6290 
      6 C8         15.5140   16.6900   23.3800 C.2       1 MAQ         0.5600 
      7 N2         14.5310   16.4170   24.2140 N.pl3     1 MAQ        -0.8500 
      8 N1         16.6740   17.1860   23.8600 N.am      1 MAQ        -0.4900 
      9 C7         17.7200   17.4890   23.0730 C.2       1 MAQ         0.5438 
     10 O1         18.7830   17.9410   23.4930 O.2       1 MAQ        -0.5700 
     11 C4         17.5900   17.2630   21.5480 C.ar      1 MAQ         0.0862 
     12 C5         18.6150   17.5430   20.5890 C.ar      1 MAQ        -0.1500 
     13 C6         18.3790   17.2950   19.1960 C.ar      1 MAQ        -0.1500 
     14 H1         16.9378   16.5822   17.7230 H         1 MAQ         0.1500 
     15 H2         14.6685   15.7752   18.2044 H         1 MAQ         0.0000 
     16 H3         13.8974   16.6091   19.5960 H         1 MAQ         0.0000 
     17 H4         14.5290   14.9385   19.7877 H         1 MAQ         0.0000 
     18 H5         13.6424   16.0383   23.8564 H         1 MAQ         0.4000 
     19 H6         14.6512   16.5824   25.2235 H         1 MAQ         0.4000 
     20 H7         16.7587   17.3346   24.8453 H         1 MAQ         0.3700 
     21 H8         19.5687   17.9421   20.9151 H         1 MAQ         0.1500 
     22 H9         19.1518   17.5045   18.4653 H         1 MAQ         0.1500 
@<TRIPOS>BOND
     1    1    2 ar   
     2    1   13 ar   
     3    2    3 1    
     4    2    4 ar   
     5    4    5 1    
     6    4   11 ar   
     7    5    6 2    
     8    6    7 1    
     9    6    8 am   
    10    8    9 am   
    11    9   10 2    
    12    9   11 1    
    13   11   12 ar   
    14   12   13 ar   
    15    1   14 1    
    16    3   15 1    
    17    3   16 1    
    18    3   17 1    
    19    7   18 1    
    20    7   19 1    
    21    8   20 1    
    22   12   21 1    
    23   13   22 1    
@<TRIPOS>SUBSTRUCTURE
     1 MAQ         1 PERM              0 ****  ****    0 ROOT 
@<TRIPOS>NORMAL
@<TRIPOS>ALT_TYPE
MMFF94_ALT_TYPE_SET 
MMFF94 3 CR 1 CB 2 CB 4 CB 11 CB 12 CB 13 CB 6 CGD 9 C=ON 14 HC 15 HC \
16 HC 17 HC 21 HC 22 HC 18 HNCN 19 HNCN 20 HNCN 10 O=CN \
5 N=C 8 NC=O 7 NC=N 
