#	Name:			1s38_ligand
#	Creating user name:	suminyi
#	Creation time:		Sun Sep 30 06:50:56 2018

#	Modifying user name:	suminyi
#	Modification time:	Sun Sep 30 06:50:56 2018

@<TRIPOS>MOLECULE
1s38_ligand
   22    23     1     1     0
SMALL
MMFF94_CHARGES


@<TRIPOS>ATOM
      1 C1         17.1850   16.9690   19.0170 C.ar      1 MOL        -0.1500 
      2 C2         16.2020   16.6010   19.9360 C.ar      1 MOL        -0.1435 
      3 C9         14.9090   15.9730   19.4250 C.3       1 MOL         0.1435 
      4 C3         16.4210   16.7990   21.3070 C.ar      1 MOL         0.1790 
      5 N3         15.4400   16.4610   22.1660 N.2       1 MOL        -0.6290 
      6 C8         15.7030   16.6490   23.4490 C.2       1 MOL         0.5600 
      7 N2         14.7390   16.3090   24.2960 N.pl3     1 MOL        -0.8500 
      8 N1         16.8370   17.1450   23.9740 N.am      1 MOL        -0.4900 
      9 C7         17.8560   17.4710   23.2020 C.2       1 MOL         0.5438 
     10 O1         18.8990   17.8500   23.6950 O.2       1 MOL        -0.5700 
     11 C4         17.6390   17.3260   21.7400 C.ar      1 MOL         0.0862 
     12 C5         18.6200   17.6870   20.8110 C.ar      1 MOL        -0.1500 
     13 C6         18.3890   17.5120   19.4510 C.ar      1 MOL        -0.1500 
     14 H1         17.0130   16.8340   17.9550 H         1 MOL         0.1500 
     15 H2         14.9380   15.8090   18.3460 H         1 MOL         0.0000 
     16 H3         14.0580   16.6160   19.6520 H         1 MOL         0.0000 
     17 H4         14.7360   15.0080   19.9060 H         1 MOL         0.0000 
     18 H5         13.9180   15.8480   23.8840 H         1 MOL         0.4000 
     19 H6         14.7240   16.6700   25.2560 H         1 MOL         0.4000 
     20 H7         16.9190   17.2390   24.9770 H         1 MOL         0.3700 
     21 H8         19.5620   18.1220   21.1300 H         1 MOL         0.1500 
     22 H9         19.1530   17.7910   18.7270 H         1 MOL         0.1500 
@<TRIPOS>BOND
     1    1    2 ar   
     2    1   13 ar   
     3    2    3 1    
     4    2    4 ar   
     5    4    5 1    
     6    4   11 ar   
     7    5    6 2    
     8    6    7 1    
     9    6    8 am   
    10    8    9 am   
    11    9   10 2    
    12    9   11 1    
    13   11   12 ar   
    14   12   13 ar   
    15    1   14 1    
    16    3   15 1    
    17    3   16 1    
    18    3   17 1    
    19    7   18 1    
    20    7   19 1    
    21    8   20 1    
    22   12   21 1    
    23   13   22 1    
@<TRIPOS>SUBSTRUCTURE
     1 MOL         1 PERM              0 ****  ****    0 ROOT 
@<TRIPOS>NORMAL
@<TRIPOS>ALT_TYPE
MMFF94_ALT_TYPE_SET 
MMFF94 3 CR 1 CB 2 CB 4 CB 11 CB 12 CB 13 CB 6 CGD 9 C=ON 14 HC 15 HC \
16 HC 17 HC 21 HC 22 HC 18 HNCN 19 HNCN 20 HNCN 10 O=CN \
5 N=C 8 NC=O 7 NC=N 
