#	Name:			3acw_ligand
#	Creating user name:	suminyi
#	Creation time:		Sun Sep 30 06:50:54 2018

#	Modifying user name:	suminyi
#	Modification time:	Sun Sep 30 06:50:54 2018

@<TRIPOS>MOLECULE
3acw_ligand
   43    46     1     1     0
SMALL
MMFF94_CHARGES


@<TRIPOS>ATOM
      1 OAA        54.7300   12.6120   53.5230 O.3       1 MOL        -0.6800 
      2 CAB        57.5690   21.2260   53.3100 C.ar      1 MOL        -0.1500 
      3 CAC        57.6410   20.3840   54.4130 C.ar      1 MOL        -0.1500 
      4 CAD        57.2890   20.6910   52.0600 C.ar      1 MOL        -0.1500 
      5 CAE        57.4160   19.0150   54.2760 C.ar      1 MOL        -0.1500 
      6 CAF        57.0750   19.3250   51.9020 C.ar      1 MOL        -0.1500 
      7 CAG        56.0030   16.5380   51.8080 C.ar      1 MOL        -0.1500 
      8 CAH        57.2840   16.0490   53.7830 C.ar      1 MOL        -0.1500 
      9 CAI        55.6940   15.1890   51.6790 C.ar      1 MOL        -0.1500 
     10 CAJ        56.9520   14.7030   53.6580 C.ar      1 MOL        -0.1500 
     11 CAK        57.9770   11.8510   51.7700 C.3       1 MOL         0.0000 
     12 CAL        56.3200   10.3030   52.8550 C.3       1 MOL         0.0000 
     13 CAM        57.3520   11.4920   50.3990 C.3       1 MOL         0.5030 
     14 CAN        55.6940    9.9860   51.4790 C.3       1 MOL         0.5030 
     15 CAO        55.1520   12.3420   51.1350 C.3       1 MOL         0.5030 
     16 CAP        57.1170   18.4620   53.0140 C.ar      1 MOL         0.0000 
     17 CAQ        56.8100   16.9960   52.8610 C.ar      1 MOL         0.0000 
     18 CAR        56.1590   14.2430   52.6000 C.ar      1 MOL        -0.1435 
     19 CAS        56.8830   11.7580   52.8730 C.3       1 MOL         0.0000 
     20 NAT        55.8760   11.1490   50.5350 N.4       1 MOL        -0.9590 
     21 CAU        55.7350   12.7680   52.5280 C.3       1 MOL         0.4235 
     22 H1         54.1520   13.4050   53.5000 H         1 MOL         0.4000 
     23 H2         57.7270   22.2980   53.4260 H         1 MOL         0.1500 
     24 H3         57.8530   20.8030   55.3920 H         1 MOL         0.1500 
     25 H4         57.2300   21.3430   51.1980 H         1 MOL         0.1500 
     26 H5         57.4370   18.4020   55.1720 H         1 MOL         0.1500 
     27 H6         56.8700   18.9530   50.9010 H         1 MOL         0.1500 
     28 H7         55.5660   17.2320   51.0920 H         1 MOL         0.1500 
     29 H8         57.9140   16.3460   54.6160 H         1 MOL         0.1500 
     30 H9         55.0410   14.9220   50.8550 H         1 MOL         0.1500 
     31 H10        57.3120   14.0260   54.4240 H         1 MOL         0.1500 
     32 H11        58.3870   12.8630   51.7330 H         1 MOL         0.0000 
     33 H12        58.8070   11.1710   51.9820 H         1 MOL         0.0000 
     34 H13        57.1110    9.5830   53.0760 H         1 MOL         0.0000 
     35 H14        55.5430   10.1990   53.6140 H         1 MOL         0.0000 
     36 H15        57.8570   10.6280   49.9580 H         1 MOL         0.0000 
     37 H16        57.4410   12.3320   49.7010 H         1 MOL         0.0000 
     38 H17        54.6170    9.8090   51.5760 H         1 MOL         0.0000 
     39 H18        56.1480    9.1020   51.0270 H         1 MOL         0.0000 
     40 H19        54.0900   12.0900   51.2170 H         1 MOL         0.0000 
     41 H20        55.2600   13.1400   50.4060 H         1 MOL         0.0000 
     42 H21        57.2960   11.9680   53.8560 H         1 MOL         0.0000 
     43 H22        55.4900   10.8920   49.5770 H         1 MOL         0.4500 
@<TRIPOS>BOND
     1   21    1 1    
     2    3    2 ar   
     3    4    2 ar   
     4    5    3 ar   
     5    6    4 ar   
     6   16    5 ar   
     7   16    6 ar   
     8    9    7 ar   
     9    7   17 ar   
    10   10    8 ar   
    11    8   17 ar   
    12   18    9 ar   
    13   18   10 ar   
    14   13   11 1    
    15   11   19 1    
    16   14   12 1    
    17   12   19 1    
    18   20   13 1    
    19   20   14 1    
    20   15   20 1    
    21   21   15 1    
    22   17   16 1    
    23   18   21 1    
    24   19   21 1    
    25    1   22 1    
    26    2   23 1    
    27    3   24 1    
    28    4   25 1    
    29    5   26 1    
    30    6   27 1    
    31    7   28 1    
    32    8   29 1    
    33    9   30 1    
    34   10   31 1    
    35   11   32 1    
    36   11   33 1    
    37   12   34 1    
    38   12   35 1    
    39   13   36 1    
    40   13   37 1    
    41   14   38 1    
    42   14   39 1    
    43   15   40 1    
    44   15   41 1    
    45   19   42 1    
    46   20   43 1    
@<TRIPOS>SUBSTRUCTURE
     1 MOL         1 PERM              0 ****  ****    0 ROOT 
@<TRIPOS>NORMAL
@<TRIPOS>ALT_TYPE
MMFF94_ALT_TYPE_SET 
MMFF94 11 CR 12 CR 13 CR 14 CR 15 CR 19 CR 21 CR 2 CB 3 CB 4 CB 5 CB \
6 CB 7 CB 8 CB 9 CB 10 CB 16 CB 17 CB 18 CB 23 HC 24 HC \
25 HC 26 HC 27 HC 28 HC 29 HC 30 HC 31 HC 32 HC 33 HC \
34 HC 35 HC 36 HC 37 HC 38 HC 39 HC 40 HC 41 HC 42 HC \
43 HNR+ 22 HOR 1 OR 20 NR+ 
