#	Name:			3aru_ligand
#	Creating user name:	suminyi
#	Creation time:		Sun Sep 30 06:51:03 2018

#	Modifying user name:	suminyi
#	Modification time:	Sun Sep 30 06:51:03 2018

@<TRIPOS>MOLECULE
3aru_ligand
   38    39     1     1     0
SMALL
MMFF94_CHARGES


@<TRIPOS>ATOM
      1 CAA         0.2260   11.2170   12.8050 C.3       1 MOL         0.0610 
      2 CAM        -0.0740   11.6590   14.2120 C.2       1 MOL         0.4480 
      3 OAD        -0.1090   12.8410   14.5060 O.2       1 MOL        -0.5700 
      4 CAJ        -0.2880   10.5430   15.2160 C.3       1 MOL         0.0610 
      5 CAH        -0.9670   11.0180   16.5210 C.3       1 MOL         0.0000 
      6 CAI        -0.9660    9.9340   17.6200 C.3       1 MOL         0.0000 
      7 CAK        -1.6630    8.6190   17.1990 C.3       1 MOL         0.3001 
      8 N1         -1.8750    7.7460   18.3780 N.am      1 MOL        -0.4201 
      9 C6         -3.0490    7.8410   19.0320 C.2       1 MOL         0.7150 
     10 O6         -3.9510    8.5780   18.6810 O.2       1 MOL        -0.5700 
     11 C5         -3.0990    7.0010   20.2160 C.2       1 MOL        -0.2366 
     12 N7         -4.1090    6.9500   21.1370 N.pl3     1 MOL         0.0476 
     13 CAB        -5.3280    7.7540   21.1690 C.3       1 MOL         0.2556 
     14 C8         -3.6930    6.0190   22.0610 C.2       1 MOL         0.0365 
     15 N9         -2.4950    5.4970   21.7390 N.2       1 MOL        -0.5653 
     16 C4         -2.1240    6.1590   20.5920 C.2       1 MOL         0.2902 
     17 N3         -0.9890    6.1350   19.8320 N.am      1 MOL        -0.4231 
     18 CAC         0.1490    5.2910   20.2450 C.3       1 MOL         0.3001 
     19 C2         -0.8540    6.9280   18.7430 C.2       1 MOL         0.6900 
     20 O2          0.1890    6.9210   18.1310 O.2       1 MOL        -0.5700 
     21 H1          0.6100   10.1950   12.8070 H         1 MOL         0.0000 
     22 H2          0.9840   11.8570   12.3590 H         1 MOL         0.0000 
     23 H3         -0.6840   11.2580   12.2030 H         1 MOL         0.0000 
     24 H4          0.6840   10.0960   15.4390 H         1 MOL         0.0000 
     25 H5         -0.8950    9.7650   14.7480 H         1 MOL         0.0000 
     26 H6         -1.9940   11.3260   16.3100 H         1 MOL         0.0000 
     27 H7         -0.4330   11.8880   16.9120 H         1 MOL         0.0000 
     28 H8         -1.4600   10.3420   18.5050 H         1 MOL         0.0000 
     29 H9          0.0650    9.7080   17.9050 H         1 MOL         0.0000 
     30 H10        -1.0510    8.1000   16.4520 H         1 MOL         0.0000 
     31 H11        -2.6190    8.8460   16.7180 H         1 MOL         0.0000 
     32 H12        -5.9580    7.4580   22.0120 H         1 MOL         0.0000 
     33 H13        -5.8770    7.6140   20.2350 H         1 MOL         0.0000 
     34 H14        -5.0610    8.8100   21.2650 H         1 MOL         0.0000 
     35 H15        -4.2850    5.7540   22.9240 H         1 MOL         0.1500 
     36 H16        -0.1260    4.6360   21.0750 H         1 MOL         0.0000 
     37 H17         0.9810    5.9310   20.5560 H         1 MOL         0.0000 
     38 H18         0.4760    4.6800   19.3990 H         1 MOL         0.0000 
@<TRIPOS>BOND
     1    1    2 1    
     2    2    3 2    
     3    2    4 1    
     4    4    5 1    
     5    5    6 1    
     6    6    7 1    
     7    7    8 1    
     8    8    9 am   
     9    8   19 am   
    10    9   10 2    
    11    9   11 1    
    12   11   12 1    
    13   11   16 2    
    14   12   13 1    
    15   12   14 1    
    16   14   15 2    
    17   15   16 1    
    18   16   17 1    
    19   17   18 1    
    20   17   19 am   
    21   19   20 2    
    22    1   21 1    
    23    1   22 1    
    24    1   23 1    
    25    4   24 1    
    26    4   25 1    
    27    5   26 1    
    28    5   27 1    
    29    6   28 1    
    30    6   29 1    
    31    7   30 1    
    32    7   31 1    
    33   13   32 1    
    34   13   33 1    
    35   13   34 1    
    36   14   35 1    
    37   18   36 1    
    38   18   37 1    
    39   18   38 1    
@<TRIPOS>SUBSTRUCTURE
     1 MOL         1 PERM              0 ****  ****    0 ROOT 
@<TRIPOS>NORMAL
@<TRIPOS>ALT_TYPE
MMFF94_ALT_TYPE_SET 
MMFF94 1 CR 4 CR 5 CR 6 CR 7 CR 13 CR 18 CR 11 C5A 14 C5A 16 C5B 19 CONN \
9 C=ON 2 C=OR 21 HC 22 HC 23 HC 24 HC 25 HC 26 HC 27 HC \
28 HC 29 HC 30 HC 31 HC 32 HC 33 HC 34 HC 35 HC 36 HC \
37 HC 38 HC 10 O=CN 20 O=CN 3 O=CR 12 NPYL 15 N5B 8 NC=O \
17 NC=O 
