3aru_ligand

Created by X-TOOL on Fri Sep 26 17:34:49 2014
 38 39  0  0  0  0  0  0  0  0999 V2000
    0.0080   11.3070   12.5930  C 0  0  0  4  0  4
   -0.2810   11.6970   14.0210  C 0  0  0  1  0  3
   -0.4630   12.8800   14.2940  O 0  0  0  1  0  1
   -0.3970   10.5890   15.1230  C 0  0  0  3  0  4
   -0.8910   11.1750   16.4570  C 0  0  0  3  0  4
   -0.8110   10.0260   17.5150  C 0  0  0  3  0  4
   -1.4910    8.6740   17.0680  C 0  0  0  3  0  4
   -1.6900    7.7910   18.2980  N 0  0  0  1  0  3
   -2.8830    7.8860   19.0530  C 0  0  0  1  0  3
   -3.7630    8.6670   18.6890  O 0  0  0  1  0  1
   -3.0170    7.0790   20.2120  C 0  0  0  1  0  3
   -4.0130    6.9290   21.1020  N 0  0  0  1  0  3
   -5.3040    7.6760   21.0500  C 0  0  0  4  0  4
   -3.6560    6.0100   22.0180  C 0  0  0  2  0  3
   -2.4160    5.5500   21.7210  N 0  0  0  1  0  2
   -1.9960    6.1840   20.6110  C 0  0  0  1  0  3
   -0.7920    6.1000   19.8810  N 0  0  0  1  0  3
    0.3360    5.1650   20.2710  C 0  0  0  4  0  4
   -0.6440    6.9130   18.7670  C 0  0  0  1  0  3
    0.4020    6.8180   18.1430  O 0  0  0  1  0  1
    0.1433   10.2171   12.5308  H 0  0  0  1  0  1
    0.9255   11.8103   12.2539  H 0  0  0  1  0  1
   -0.8340   11.6091   11.9528  H 0  0  0  1  0  1
    0.5917   10.1321   15.2769  H 0  0  0  1  0  1
   -1.1075    9.8204   14.7846  H 0  0  0  1  0  1
   -1.9292   11.5241   16.3555  H 0  0  0  1  0  1
   -0.2497   12.0151   16.7618  H 0  0  0  1  0  1
   -1.3057   10.3713   18.4348  H 0  0  0  1  0  1
    0.2501    9.8241   17.7229  H 0  0  0  1  0  1
   -0.8447    8.1574   16.3432  H 0  0  0  1  0  1
   -2.4656    8.8863   16.6042  H 0  0  0  1  0  1
   -5.9407    7.3668   21.8921  H 0  0  0  1  0  1
   -5.8171    7.4558   20.1023  H 0  0  0  1  0  1
   -5.1058    8.7559   21.1174  H 0  0  0  1  0  1
   -4.2649    5.6880   22.8615  H 0  0  0  1  0  1
    0.0498    4.6004   21.1706  H 0  0  0  1  0  1
    1.2430    5.7515   20.4794  H 0  0  0  1  0  1
    0.5336    4.4647   19.4461  H 0  0  0  1  0  1
  1  2  1  0  0  2
  2  3  2  0  0  2
  2  4  1  0  0  2
  4  5  1  0  0  2
  5  6  1  0  0  2
  6  7  1  0  0  2
  7  8  1  0  0  2
  8  9  1  0  0  1
  8 19  1  0  0  1
  9 10  2  0  0  2
  9 11  1  0  0  1
 11 12  1  0  0  1
 11 16  2  0  0  1
 12 13  1  0  0  2
 12 14  1  0  0  1
 14 15  2  0  0  1
 15 16  1  0  0  1
 16 17  1  0  0  1
 17 18  1  0  0  2
 17 19  1  0  0  1
 19 20  2  0  0  2
  1 21  1  0  0  2
  1 22  1  0  0  2
  1 23  1  0  0  2
  4 24  1  0  0  2
  4 25  1  0  0  2
  5 26  1  0  0  2
  5 27  1  0  0  2
  6 28  1  0  0  2
  6 29  1  0  0  2
  7 30  1  0  0  2
  7 31  1  0  0  2
 13 32  1  0  0  2
 13 33  1  0  0  2
 13 34  1  0  0  2
 14 35  1  0  0  2
 18 36  1  0  0  2
 18 37  1  0  0  2
 18 38  1  0  0  2
M  END
> <MOLECULAR_FORMULA>
C13H18N4O3

> <MOLECULAR_WEIGHT>
278.2

> <NUM_HB_ATOMS>
5  

> <NUM_ROTOR>
5  

> <XLOGP2>
0.04 

$$$$
