#	Name:			3aru_ligand
#	Creating user name:	suminyi
#	Creation time:		Sun Sep 30 06:49:01 2018

#	Modifying user name:	suminyi
#	Modification time:	Sun Sep 30 06:49:01 2018

@<TRIPOS>MOLECULE
3aru_ligand
   38    39     1     1     0
SMALL
MMFF94_CHARGES


@<TRIPOS>ATOM
      1 CAA         0.0080   11.3070   12.5930 C.3       1 PNX         0.0610 
      2 CAM        -0.2810   11.6970   14.0210 C.2       1 PNX         0.4480 
      3 OAD        -0.4630   12.8800   14.2940 O.2       1 PNX        -0.5700 
      4 CAJ        -0.3970   10.5890   15.1230 C.3       1 PNX         0.0610 
      5 CAH        -0.8910   11.1750   16.4570 C.3       1 PNX         0.0000 
      6 CAI        -0.8110   10.0260   17.5150 C.3       1 PNX         0.0000 
      7 CAK        -1.4910    8.6740   17.0680 C.3       1 PNX         0.3001 
      8 N1         -1.6900    7.7910   18.2980 N.am      1 PNX        -0.4201 
      9 C6         -2.8830    7.8860   19.0530 C.2       1 PNX         0.7150 
     10 O6         -3.7630    8.6670   18.6890 O.2       1 PNX        -0.5700 
     11 C5         -3.0170    7.0790   20.2120 C.2       1 PNX        -0.2366 
     12 N7         -4.0130    6.9290   21.1020 N.pl3     1 PNX         0.0476 
     13 CAB        -5.3040    7.6760   21.0500 C.3       1 PNX         0.2556 
     14 C8         -3.6560    6.0100   22.0180 C.2       1 PNX         0.0365 
     15 N9         -2.4160    5.5500   21.7210 N.2       1 PNX        -0.5653 
     16 C4         -1.9960    6.1840   20.6110 C.2       1 PNX         0.2902 
     17 N3         -0.7920    6.1000   19.8810 N.am      1 PNX        -0.4231 
     18 CAC         0.3360    5.1650   20.2710 C.3       1 PNX         0.3001 
     19 C2         -0.6440    6.9130   18.7670 C.2       1 PNX         0.6900 
     20 O2          0.4020    6.8180   18.1430 O.2       1 PNX        -0.5700 
     21 H1          0.1433   10.2171   12.5308 H         1 PNX         0.0000 
     22 H2          0.9255   11.8103   12.2539 H         1 PNX         0.0000 
     23 H3         -0.8340   11.6091   11.9528 H         1 PNX         0.0000 
     24 H4          0.5917   10.1321   15.2769 H         1 PNX         0.0000 
     25 H5         -1.1075    9.8204   14.7846 H         1 PNX         0.0000 
     26 H6         -1.9292   11.5241   16.3555 H         1 PNX         0.0000 
     27 H7         -0.2497   12.0151   16.7618 H         1 PNX         0.0000 
     28 H8         -1.3057   10.3713   18.4348 H         1 PNX         0.0000 
     29 H9          0.2501    9.8241   17.7229 H         1 PNX         0.0000 
     30 H10        -0.8447    8.1574   16.3432 H         1 PNX         0.0000 
     31 H11        -2.4656    8.8863   16.6042 H         1 PNX         0.0000 
     32 H12        -5.9407    7.3668   21.8921 H         1 PNX         0.0000 
     33 H13        -5.8171    7.4558   20.1023 H         1 PNX         0.0000 
     34 H14        -5.1058    8.7559   21.1174 H         1 PNX         0.0000 
     35 H15        -4.2649    5.6880   22.8615 H         1 PNX         0.1500 
     36 H16         0.0498    4.6004   21.1706 H         1 PNX         0.0000 
     37 H17         1.2430    5.7515   20.4794 H         1 PNX         0.0000 
     38 H18         0.5336    4.4647   19.4461 H         1 PNX         0.0000 
@<TRIPOS>BOND
     1    1    2 1    
     2    2    3 2    
     3    2    4 1    
     4    4    5 1    
     5    5    6 1    
     6    6    7 1    
     7    7    8 1    
     8    8    9 am   
     9    8   19 am   
    10    9   10 2    
    11    9   11 1    
    12   11   12 1    
    13   11   16 2    
    14   12   13 1    
    15   12   14 1    
    16   14   15 2    
    17   15   16 1    
    18   16   17 1    
    19   17   18 1    
    20   17   19 am   
    21   19   20 2    
    22    1   21 1    
    23    1   22 1    
    24    1   23 1    
    25    4   24 1    
    26    4   25 1    
    27    5   26 1    
    28    5   27 1    
    29    6   28 1    
    30    6   29 1    
    31    7   30 1    
    32    7   31 1    
    33   13   32 1    
    34   13   33 1    
    35   13   34 1    
    36   14   35 1    
    37   18   36 1    
    38   18   37 1    
    39   18   38 1    
@<TRIPOS>SUBSTRUCTURE
     1 PNX         1 PERM              0 ****  ****    0 ROOT 
@<TRIPOS>NORMAL
@<TRIPOS>ALT_TYPE
MMFF94_ALT_TYPE_SET 
MMFF94 1 CR 4 CR 5 CR 6 CR 7 CR 13 CR 18 CR 11 C5A 14 C5A 16 C5B 19 CONN \
9 C=ON 2 C=OR 21 HC 22 HC 23 HC 24 HC 25 HC 26 HC 27 HC \
28 HC 29 HC 30 HC 31 HC 32 HC 33 HC 34 HC 35 HC 36 HC \
37 HC 38 HC 10 O=CN 20 O=CN 3 O=CR 12 NPYL 15 N5B 8 NC=O \
17 NC=O 
