#	Name:			3gnw_ligand
#	Creating user name:	suminyi
#	Creation time:		Sun Sep 30 06:49:02 2018

#	Modifying user name:	suminyi
#	Modification time:	Sun Sep 30 06:49:02 2018

@<TRIPOS>MOLECULE
3gnw_ligand
   76    81     1     1     0
SMALL
MMFF94_CHARGES


@<TRIPOS>ATOM
      1 O35        27.2090    6.8400   40.1460 O.2       1 XNC        -0.5700 
      2 C16        28.2350    6.4290   39.6280 C.2       1 XNC         0.5438 
      3 C17        29.2100    5.7280   40.5020 C.ar      1 XNC         0.3962 
      4 C43        29.6290    4.4390   40.2160 C.ar      1 XNC        -0.1500 
      5 C42        30.5430    3.8330   41.0740 C.ar      1 XNC        -0.1500 
      6 C41        31.0460    4.5340   42.1850 C.ar      1 XNC        -0.1500 
      7 C40        30.6440    5.8340   42.4480 C.ar      1 XNC         0.1665 
      8 C44        31.1510    6.6080   43.6350 C.3       1 XNC         0.1435 
      9 N39        29.7200    6.4160   41.6040 N.ar      1 XNC        -0.6200 
     10 N7         28.4990    6.6200   38.2610 N.am      1 XNC        -0.4771 
     11 C4         29.7960    6.5320   37.6850 C.ar      1 XNC         0.1170 
     12 C3         30.8280    7.3740   38.1260 C.ar      1 XNC        -0.1500 
     13 C2         32.0890    7.3190   37.5480 C.ar      1 XNC        -0.1500 
     14 C8         27.3780    6.9220   37.3460 C.3       1 XNC         0.5818 
     15 C9         26.9060    5.6410   36.7090 C.2       1 XNC        -0.1552 
     16 S12        25.2010    5.5080   36.7120 S.o2      1 XNC         1.2118 
     17 O32        24.6590    6.6790   36.0270 O.2       1 XNC        -0.6500 
     18 O33        24.6740    5.5040   38.0560 O.2       1 XNC        -0.6500 
     19 C13        24.7630    3.9640   35.8880 C.3       1 XNC         0.1052 
     20 C14        25.7620    3.5660   34.8060 C.3       1 XNC         0.0000 
     21 C37        25.3440    2.1900   34.2310 C.3       1 XNC         0.0000 
     22 C38        25.8350    4.6180   33.6660 C.3       1 XNC         0.0000 
     23 C15        27.1250    3.4330   35.5270 C.3       1 XNC         0.1382 
     24 C10        27.7020    4.6770   36.1870 C.2       1 XNC        -0.0382 
     25 N11        29.0900    4.7110   36.1600 N.pl3     1 XNC        -0.6000 
     26 C5         30.0430    5.6160   36.6560 C.ar      1 XNC         0.1000 
     27 C6         31.3110    5.5550   36.1070 C.ar      1 XNC         0.0825 
     28 O36        31.6040    4.6780   35.1050 O.3       1 XNC        -0.5325 
     29 C1         32.3180    6.4040   36.5510 C.ar      1 XNC        -0.1500 
     30 C18        27.8670    8.0410   36.3960 C.ar      1 XNC        -0.1435 
     31 C23        28.1250    9.3010   36.9200 C.ar      1 XNC         0.1900 
     32 F34        27.9370    9.4960   38.2230 F         1 XNC        -0.1900 
     33 C22        28.5550   10.3460   36.1000 C.ar      1 XNC        -0.1500 
     34 C21        28.7350   10.1290   34.7330 C.ar      1 XNC         0.0825 
     35 C20        28.4790    8.8560   34.2050 C.ar      1 XNC        -0.1500 
     36 C19        28.0420    7.8260   35.0300 C.ar      1 XNC        -0.1500 
     37 O24        29.1790   11.1700   33.9580 O.3       1 XNC        -0.3625 
     38 C25        29.4400   11.0410   32.5430 C.3       1 XNC         0.4235 
     39 C26        28.1320   10.9290   31.7720 C.ar      1 XNC        -0.1435 
     40 C31        28.0230   10.0310   30.7260 C.ar      1 XNC        -0.1500 
     41 C30        26.8260    9.8880   30.0340 C.ar      1 XNC        -0.1500 
     42 C29        25.7290   10.6630   30.3820 C.ar      1 XNC        -0.1500 
     43 C28        25.8350   11.5800   31.4400 C.ar      1 XNC        -0.1500 
     44 C27        27.0300   11.7070   32.1370 C.ar      1 XNC        -0.1500 
     45 H1         29.2541    3.9144   39.3446 H         1 XNC         0.1500 
     46 H2         30.8684    2.8164   40.8850 H         1 XNC         0.1500 
     47 H3         31.7578    4.0508   42.8445 H         1 XNC         0.1500 
     48 H4         30.6978    7.6103   43.6399 H         1 XNC         0.0000 
     49 H5         32.2453    6.7008   43.5721 H         1 XNC         0.0000 
     50 H6         30.8805    6.0788   44.5606 H         1 XNC         0.0000 
     51 H7         30.6381    8.0770   38.9290 H         1 XNC         0.1500 
     52 H8         32.8775    7.9858   37.8777 H         1 XNC         0.1500 
     53 H9         26.5353    7.3247   37.9270 H         1 XNC         0.0000 
     54 H10        23.7722    4.0817   35.4250 H         1 XNC         0.0000 
     55 H11        24.7231    3.1631   36.6409 H         1 XNC         0.0000 
     56 H12        26.0555    1.8883   33.4482 H         1 XNC         0.0000 
     57 H13        24.3346    2.2639   33.8002 H         1 XNC         0.0000 
     58 H14        25.3451    1.4405   35.0361 H         1 XNC         0.0000 
     59 H15        26.1324    5.5912   34.0837 H         1 XNC         0.0000 
     60 H16        24.8485    4.7101   33.1883 H         1 XNC         0.0000 
     61 H17        26.5759    4.2980   32.9186 H         1 XNC         0.0000 
     62 H18        27.8574    3.0864   34.7831 H         1 XNC         0.0000 
     63 H19        27.0088    2.6697   36.3105 H         1 XNC         0.0000 
     64 H20        29.5080    3.9042   35.6750 H         1 XNC         0.4000 
     65 H21        32.5152    4.7771   34.8554 H         1 XNC         0.4500 
     66 H22        33.3025    6.3423   36.1015 H         1 XNC         0.1500 
     67 H23        28.7488   11.3245   36.5244 H         1 XNC         0.1500 
     68 H24        28.6228    8.6735   33.1462 H         1 XNC         0.1500 
     69 H25        27.8359    6.8490   34.6081 H         1 XNC         0.1500 
     70 H26        30.0437   10.1386   32.3662 H         1 XNC         0.0000 
     71 H27        29.9923   11.9259   32.1938 H         1 XNC         0.0000 
     72 H28        28.8807    9.4318   30.4425 H         1 XNC         0.1500 
     73 H29        26.7497    9.1721   29.2237 H         1 XNC         0.1500 
     74 H30        24.7956   10.5611   29.8403 H         1 XNC         0.1500 
     75 H31        24.9821   12.1905   31.7137 H         1 XNC         0.1500 
     76 H32        27.1074   12.4071   32.9610 H         1 XNC         0.1500 
@<TRIPOS>BOND
     1    1    2 2    
     2    2    3 1    
     3    2   10 am   
     4    3    4 ar   
     5    3    9 ar   
     6    4    5 ar   
     7    5    6 ar   
     8    6    7 ar   
     9    7    8 1    
    10    7    9 ar   
    11   10   11 1    
    12   10   14 1    
    13   11   12 ar   
    14   11   26 ar   
    15   12   13 ar   
    16   13   29 ar   
    17   14   15 1    
    18   14   30 1    
    19   15   16 1    
    20   15   24 2    
    21   16   17 2    
    22   16   18 2    
    23   16   19 1    
    24   19   20 1    
    25   20   21 1    
    26   20   22 1    
    27   20   23 1    
    28   23   24 1    
    29   24   25 1    
    30   25   26 1    
    31   26   27 ar   
    32   27   28 1    
    33   27   29 ar   
    34   30   31 ar   
    35   30   36 ar   
    36   31   32 1    
    37   31   33 ar   
    38   33   34 ar   
    39   34   35 ar   
    40   34   37 1    
    41   35   36 ar   
    42   37   38 1    
    43   38   39 1    
    44   39   40 ar   
    45   39   44 ar   
    46   40   41 ar   
    47   41   42 ar   
    48   42   43 ar   
    49   43   44 ar   
    50    4   45 1    
    51    5   46 1    
    52    6   47 1    
    53    8   48 1    
    54    8   49 1    
    55    8   50 1    
    56   12   51 1    
    57   13   52 1    
    58   14   53 1    
    59   19   54 1    
    60   19   55 1    
    61   21   56 1    
    62   21   57 1    
    63   21   58 1    
    64   22   59 1    
    65   22   60 1    
    66   22   61 1    
    67   23   62 1    
    68   23   63 1    
    69   25   64 1    
    70   28   65 1    
    71   29   66 1    
    72   33   67 1    
    73   35   68 1    
    74   36   69 1    
    75   38   70 1    
    76   38   71 1    
    77   40   72 1    
    78   41   73 1    
    79   42   74 1    
    80   43   75 1    
    81   44   76 1    
@<TRIPOS>SUBSTRUCTURE
     1 XNC         1 PERM              0 ****  ****    0 ROOT 
@<TRIPOS>NORMAL
@<TRIPOS>ALT_TYPE
MMFF94_ALT_TYPE_SET 
MMFF94 8 CR 14 CR 19 CR 20 CR 21 CR 22 CR 23 CR 38 CR 3 CB 4 CB 5 CB \
6 CB 7 CB 11 CB 12 CB 13 CB 26 CB 27 CB 29 CB 30 CB 31 CB \
33 CB 34 CB 35 CB 36 CB 39 CB 40 CB 41 CB 42 CB 43 CB \
44 CB 2 C=ON 15 C=C 24 C=C 45 HC 46 HC 47 HC 48 HC 49 HC \
50 HC 51 HC 52 HC 53 HC 54 HC 55 HC 56 HC 57 HC 58 HC \
59 HC 60 HC 61 HC 62 HC 63 HC 66 HC 67 HC 68 HC 69 HC \
70 HC 71 HC 72 HC 73 HC 74 HC 75 HC 76 HC 64 HNCC 65 HOCC \
1 O=CN 17 O2S 18 O2S 28 OC=C 37 OC=C 9 NPYD 10 NC=O \
25 NC=C 16 SO2 32 F 
