#	Name:			3gnw_ligand
#	Creating user name:	suminyi
#	Creation time:		Sun Sep 30 06:50:59 2018

#	Modifying user name:	suminyi
#	Modification time:	Sun Sep 30 06:50:59 2018

@<TRIPOS>MOLECULE
3gnw_ligand
   76    81     1     1     0
SMALL
MMFF94_CHARGES


@<TRIPOS>ATOM
      1 O35        27.2610    7.0440   40.2780 O.2       1 MOL        -0.5700 
      2 C16        28.2110    6.4590   39.7810 C.2       1 MOL         0.5438 
      3 C17        29.3040    5.7780   40.6200 C.ar      1 MOL         0.3962 
      4 C43        30.0030    4.6580   40.1360 C.ar      1 MOL        -0.1500 
      5 C42        31.0700    4.1200   40.8510 C.ar      1 MOL        -0.1500 
      6 C41        31.4500    4.7460   42.0330 C.ar      1 MOL        -0.1500 
      7 C40        30.7210    5.8440   42.4820 C.ar      1 MOL         0.1665 
      8 C44        31.1050    6.5690   43.7520 C.3       1 MOL         0.1435 
      9 N39        29.6250    6.3010   41.8360 N.ar      1 MOL        -0.6200 
     10 N7         28.3720    6.4610   38.4230 N.am      1 MOL        -0.4771 
     11 C4         29.6720    6.4350   37.8240 C.ar      1 MOL         0.1170 
     12 C3         30.6830    7.2610   38.3340 C.ar      1 MOL        -0.1500 
     13 C2         31.9570    7.2500   37.7790 C.ar      1 MOL        -0.1500 
     14 C8         27.2920    6.8640   37.5040 C.3       1 MOL         0.5818 
     15 C9         26.8310    5.6040   36.8090 C.2       1 MOL        -0.1552 
     16 S12        25.0760    5.4060   36.7870 S.o2      1 MOL         1.2118 
     17 O32        24.6240    6.6180   36.1000 O.2       1 MOL        -0.6500 
     18 O33        24.6940    5.1930   38.1840 O.2       1 MOL        -0.6500 
     19 C13        24.6640    3.9660   35.8500 C.3       1 MOL         0.1052 
     20 C14        25.7420    3.5400   34.8380 C.3       1 MOL         0.0000 
     21 C37        25.3560    2.1410   34.2990 C.3       1 MOL         0.0000 
     22 C38        25.7980    4.5170   33.6380 C.3       1 MOL         0.0000 
     23 C15        27.1050    3.4300   35.5610 C.3       1 MOL         0.1382 
     24 C10        27.6200    4.7050   36.2020 C.2       1 MOL        -0.0382 
     25 N11        28.9670    4.8690   36.0800 N.pl3     1 MOL        -0.6000 
     26 C5         29.9200    5.6490   36.6930 C.ar      1 MOL         0.1000 
     27 C6         31.2000    5.6640   36.1300 C.ar      1 MOL         0.0825 
     28 O36        31.4740    4.9920   34.9770 O.3       1 MOL        -0.5325 
     29 C1         32.2170    6.4390   36.6800 C.ar      1 MOL        -0.1500 
     30 C18        27.7150    7.9990   36.5540 C.ar      1 MOL        -0.1435 
     31 C23        28.1070    9.2310   37.0820 C.ar      1 MOL         0.1900 
     32 F34        28.1180    9.4070   38.4090 F         1 MOL        -0.1900 
     33 C22        28.5270   10.2730   36.2610 C.ar      1 MOL        -0.1500 
     34 C21        28.6110   10.0860   34.8870 C.ar      1 MOL         0.0825 
     35 C20        28.2260    8.8600   34.3450 C.ar      1 MOL        -0.1500 
     36 C19        27.7730    7.8350   35.1670 C.ar      1 MOL        -0.1500 
     37 O24        29.1030   11.1160   34.1060 O.3       1 MOL        -0.3625 
     38 C25        29.4900   10.9320   32.7200 C.3       1 MOL         0.4235 
     39 C26        28.2600   10.8780   31.8190 C.ar      1 MOL        -0.1435 
     40 C31        28.2450   10.0280   30.7130 C.ar      1 MOL        -0.1500 
     41 C30        27.1050    9.9120   29.9220 C.ar      1 MOL        -0.1500 
     42 C29        25.9720   10.6570   30.2290 C.ar      1 MOL        -0.1500 
     43 C28        25.9830   11.5320   31.3140 C.ar      1 MOL        -0.1500 
     44 C27        27.1230   11.6340   32.1090 C.ar      1 MOL        -0.1500 
     45 H1         29.7070    4.2080   39.1940 H         1 MOL         0.1500 
     46 H2         31.6250    3.2630   40.4700 H         1 MOL         0.1500 
     47 H3         32.3280    4.4200   42.5830 H         1 MOL         0.1500 
     48 H4         30.6670    7.5690   43.7770 H         1 MOL         0.0000 
     49 H5         32.1900    6.6840   43.8110 H         1 MOL         0.0000 
     50 H6         30.7630    6.0200   44.6310 H         1 MOL         0.0000 
     51 H7         30.4870    7.9300   39.1730 H         1 MOL         0.1500 
     52 H8         32.7400    7.8880   38.1970 H         1 MOL         0.1500 
     53 H9         26.4500    7.2480   38.0920 H         1 MOL         0.0000 
     54 H10        23.7350    4.1990   35.3320 H         1 MOL         0.0000 
     55 H11        24.4830    3.1820   36.5850 H         1 MOL         0.0000 
     56 H12        26.0970    1.7780   33.5840 H         1 MOL         0.0000 
     57 H13        24.3910    2.1750   33.7880 H         1 MOL         0.0000 
     58 H14        25.2780    1.4100   35.1080 H         1 MOL         0.0000 
     59 H15        25.9740    5.5440   33.9550 H         1 MOL         0.0000 
     60 H16        24.8530    4.5070   33.0880 H         1 MOL         0.0000 
     61 H17        26.5910    4.2350   32.9420 H         1 MOL         0.0000 
     62 H18        27.8380    3.0490   34.8470 H         1 MOL         0.0000 
     63 H19        27.0260    2.6810   36.3520 H         1 MOL         0.0000 
     64 H20        29.3670    4.3980   35.2850 H         1 MOL         0.4000 
     65 H21        32.1540    5.5890   34.5730 H         1 MOL         0.4500 
     66 H22        33.2160    6.4420   36.2500 H         1 MOL         0.1500 
     67 H23        28.8110   11.2220   36.7060 H         1 MOL         0.1500 
     68 H24        28.2860    8.6750   33.2780 H         1 MOL         0.1500 
     69 H25        27.5020    6.8960   34.7060 H         1 MOL         0.1500 
     70 H26        30.0910   10.0210   32.6400 H         1 MOL         0.0000 
     71 H27        30.1230   11.7710   32.4340 H         1 MOL         0.0000 
     72 H28        29.1070    9.4190   30.4810 H         1 MOL         0.1500 
     73 H29        27.0840    9.2210   29.0790 H         1 MOL         0.1500 
     74 H30        25.0740   10.5280   29.6320 H         1 MOL         0.1500 
     75 H31        25.0850   12.0990   31.5590 H         1 MOL         0.1500 
     76 H32        27.1190   12.2820   32.9800 H         1 MOL         0.1500 
@<TRIPOS>BOND
     1    1    2 2    
     2    2    3 1    
     3    2   10 am   
     4    3    4 ar   
     5    3    9 ar   
     6    4    5 ar   
     7    5    6 ar   
     8    6    7 ar   
     9    7    8 1    
    10    7    9 ar   
    11   10   11 1    
    12   10   14 1    
    13   11   12 ar   
    14   11   26 ar   
    15   12   13 ar   
    16   13   29 ar   
    17   14   15 1    
    18   14   30 1    
    19   15   16 1    
    20   15   24 2    
    21   16   17 2    
    22   16   18 2    
    23   16   19 1    
    24   19   20 1    
    25   20   21 1    
    26   20   22 1    
    27   20   23 1    
    28   23   24 1    
    29   24   25 1    
    30   25   26 1    
    31   26   27 ar   
    32   27   28 1    
    33   27   29 ar   
    34   30   31 ar   
    35   30   36 ar   
    36   31   32 1    
    37   31   33 ar   
    38   33   34 ar   
    39   34   35 ar   
    40   34   37 1    
    41   35   36 ar   
    42   37   38 1    
    43   38   39 1    
    44   39   40 ar   
    45   39   44 ar   
    46   40   41 ar   
    47   41   42 ar   
    48   42   43 ar   
    49   43   44 ar   
    50    4   45 1    
    51    5   46 1    
    52    6   47 1    
    53    8   48 1    
    54    8   49 1    
    55    8   50 1    
    56   12   51 1    
    57   13   52 1    
    58   14   53 1    
    59   19   54 1    
    60   19   55 1    
    61   21   56 1    
    62   21   57 1    
    63   21   58 1    
    64   22   59 1    
    65   22   60 1    
    66   22   61 1    
    67   23   62 1    
    68   23   63 1    
    69   25   64 1    
    70   28   65 1    
    71   29   66 1    
    72   33   67 1    
    73   35   68 1    
    74   36   69 1    
    75   38   70 1    
    76   38   71 1    
    77   40   72 1    
    78   41   73 1    
    79   42   74 1    
    80   43   75 1    
    81   44   76 1    
@<TRIPOS>SUBSTRUCTURE
     1 MOL         1 PERM              0 ****  ****    0 ROOT 
@<TRIPOS>NORMAL
@<TRIPOS>ALT_TYPE
MMFF94_ALT_TYPE_SET 
MMFF94 8 CR 14 CR 19 CR 20 CR 21 CR 22 CR 23 CR 38 CR 3 CB 4 CB 5 CB \
6 CB 7 CB 11 CB 12 CB 13 CB 26 CB 27 CB 29 CB 30 CB 31 CB \
33 CB 34 CB 35 CB 36 CB 39 CB 40 CB 41 CB 42 CB 43 CB \
44 CB 2 C=ON 15 C=C 24 C=C 45 HC 46 HC 47 HC 48 HC 49 HC \
50 HC 51 HC 52 HC 53 HC 54 HC 55 HC 56 HC 57 HC 58 HC \
59 HC 60 HC 61 HC 62 HC 63 HC 66 HC 67 HC 68 HC 69 HC \
70 HC 71 HC 72 HC 73 HC 74 HC 75 HC 76 HC 64 HNCC 65 HOCC \
1 O=CN 17 O2S 18 O2S 28 OC=C 37 OC=C 9 NPYD 10 NC=O \
25 NC=C 16 SO2 32 F 
