#	Name:			4dli_ligand
#	Creating user name:	suminyi
#	Creation time:		Sun Sep 30 06:51:02 2018

#	Modifying user name:	suminyi
#	Modification time:	Sun Sep 30 06:51:02 2018

@<TRIPOS>MOLECULE
4dli_ligand
   37    40     1     1     0
SMALL
MMFF94_CHARGES


@<TRIPOS>ATOM
      1 N1         24.0300  -17.0740  -10.7950 N.ar      1 MOL        -0.6200 
      2 C2         23.8820  -17.7090   -9.6330 C.ar      1 MOL         0.6200 
      3 N3         24.2500  -17.2170   -8.4440 N.ar      1 MOL        -0.6200 
      4 C4         24.6960  -15.9460   -8.4020 C.ar      1 MOL         0.3100 
      5 C5         24.8180  -15.1890   -9.5650 C.ar      1 MOL         0.0000 
      6 C6         24.4930  -15.8290  -10.7490 C.ar      1 MOL         0.4100 
      7 NAA        25.8140  -13.5220   -5.9140 N.pl3     1 MOL        -0.9000 
      8 CAB        21.9930  -21.6000   -9.8060 C.ar      1 MOL        -0.1500 
      9 CAC        22.2830  -20.9100  -10.9760 C.ar      1 MOL        -0.1500 
     10 CAD        22.3810  -21.0720   -8.5790 C.ar      1 MOL        -0.1500 
     11 CAE        22.9090  -19.6680  -10.9260 C.ar      1 MOL        -0.1500 
     12 CAF        23.0180  -19.8320   -8.5150 C.ar      1 MOL        -0.1500 
     13 CAG        25.5790  -13.2980   -8.2650 C.ar      1 MOL        -0.1500 
     14 CAH        25.2410  -13.8530   -9.4960 C.ar      1 MOL        -0.1500 
     15 CAI        25.0470  -15.3790   -7.1830 C.ar      1 MOL        -0.1500 
     16 CAJ        25.6340  -15.9480  -13.3370 C.3       1 MOL        -0.2000 
     17 CAK        25.0320  -14.6560  -13.7760 C.3       1 MOL        -0.2000 
     18 NAN        24.6740  -15.2430  -11.9690 N.pl3     1 MOL        -0.6690 
     19 CAO        25.4890  -14.0650   -7.1140 C.ar      1 MOL         0.1000 
     20 CAP        23.2760  -19.0950   -9.6900 C.ar      1 MOL         0.0000 
     21 CAU        24.0930  -15.7420  -13.2200 C.3       1 MOL         0.0690 
     22 H1         25.9700  -12.4980   -5.8820 H         1 MOL         0.4000 
     23 H2         25.3400  -13.8820   -5.1010 H         1 MOL         0.4000 
     24 H3         21.4540  -22.5440   -9.8580 H         1 MOL         0.1500 
     25 H4         21.9930  -21.3270  -11.9380 H         1 MOL         0.1500 
     26 H5         22.1560  -21.6140   -7.6640 H         1 MOL         0.1500 
     27 H6         23.0810  -19.1370  -11.8610 H         1 MOL         0.1500 
     28 H7         23.2740  -19.4180   -7.5410 H         1 MOL         0.1500 
     29 H8         25.9040  -12.2610   -8.2000 H         1 MOL         0.1500 
     30 H9         25.3170  -13.2290  -10.3820 H         1 MOL         0.1500 
     31 H10        24.9570  -15.9730   -6.2820 H         1 MOL         0.1500 
     32 H11        26.4890  -15.9700  -12.6250 H         1 MOL         0.1000 
     33 H12        25.8960  -16.6290  -14.1410 H         1 MOL         0.1000 
     34 H13        24.9560  -14.5130  -14.8500 H         1 MOL         0.1000 
     35 H14        25.3010  -13.6930  -13.3180 H         1 MOL         0.1000 
     36 H15        24.8750  -14.2650  -11.8790 H         1 MOL         0.4000 
     37 H16        23.6470  -16.7000  -13.4740 H         1 MOL         0.1000 
@<TRIPOS>BOND
     1    1    2 ar   
     2    6    1 ar   
     3    2    3 ar   
     4    2   20 1    
     5    4    3 ar   
     6    5    4 ar   
     7    4   15 ar   
     8    6    5 ar   
     9    5   14 ar   
    10   18    6 1    
    11   19    7 1    
    12    9    8 ar   
    13   10    8 ar   
    14   11    9 ar   
    15   12   10 ar   
    16   20   11 ar   
    17   20   12 ar   
    18   14   13 ar   
    19   13   19 ar   
    20   15   19 ar   
    21   17   16 1    
    22   21   16 1    
    23   21   17 1    
    24   18   21 1    
    25    7   22 1    
    26    7   23 1    
    27    8   24 1    
    28    9   25 1    
    29   10   26 1    
    30   11   27 1    
    31   12   28 1    
    32   13   29 1    
    33   14   30 1    
    34   15   31 1    
    35   16   32 1    
    36   16   33 1    
    37   17   34 1    
    38   17   35 1    
    39   18   36 1    
    40   21   37 1    
@<TRIPOS>SUBSTRUCTURE
     1 MOL         1 PERM              0 ****  ****    0 ROOT 
@<TRIPOS>NORMAL
@<TRIPOS>ALT_TYPE
MMFF94_ALT_TYPE_SET 
MMFF94 16 CR3R 17 CR3R 21 CR3R 2 CB 4 CB 5 CB 6 CB 8 CB 9 CB 10 CB 11 CB \
12 CB 13 CB 14 CB 15 CB 19 CB 20 CB 24 HC 25 HC 26 HC \
27 HC 28 HC 29 HC 30 HC 31 HC 32 HC 33 HC 34 HC 35 HC \
37 HC 22 HNCC 23 HNCC 36 HNCC 1 NPYD 3 NPYD 18 NC=N 7 NC=C \

