#	Name:			4dli_ligand
#	Creating user name:	suminyi
#	Creation time:		Sun Sep 30 06:49:01 2018

#	Modifying user name:	suminyi
#	Modification time:	Sun Sep 30 06:49:02 2018

@<TRIPOS>MOLECULE
4dli_ligand
   37    40     1     1     0
SMALL
MMFF94_CHARGES


@<TRIPOS>ATOM
      1 N1         23.9510  -17.0200  -10.7870 N.ar      1 IRG        -0.6200 
      2 C2         23.7610  -17.7670   -9.6720 C.ar      1 IRG         0.6200 
      3 N3         24.0140  -17.2130   -8.4700 N.ar      1 IRG        -0.6200 
      4 C4         24.4770  -15.9560   -8.3730 C.ar      1 IRG         0.3100 
      5 C5         24.6550  -15.1760   -9.5110 C.ar      1 IRG         0.0000 
      6 C6         24.4140  -15.7530  -10.7530 C.ar      1 IRG         0.4100 
      7 NAA        25.4880  -13.5930   -5.7910 N.pl3     1 IRG        -0.9000 
      8 CAB        22.0700  -21.6240  -10.1730 C.ar      1 IRG        -0.1500 
      9 CAC        22.3560  -20.8030  -11.2580 C.ar      1 IRG        -0.1500 
     10 CAD        22.3690  -21.1600   -8.8750 C.ar      1 IRG        -0.1500 
     11 CAE        22.9280  -19.5440  -11.0690 C.ar      1 IRG        -0.1500 
     12 CAF        22.9540  -19.8950   -8.6880 C.ar      1 IRG        -0.1500 
     13 CAG        25.4390  -13.2950   -8.1480 C.ar      1 IRG        -0.1500 
     14 CAH        25.1500  -13.8640   -9.3930 C.ar      1 IRG        -0.1500 
     15 CAI        24.7850  -15.4040   -7.1300 C.ar      1 IRG        -0.1500 
     16 CAJ        25.6170  -16.2920  -13.8110 C.3       1 IRG        -0.2000 
     17 CAK        25.1050  -14.9780  -14.3790 C.3       1 IRG        -0.2000 
     18 NAN        24.5870  -15.0370  -11.8930 N.pl3     1 IRG        -0.6690 
     19 CAO        25.2360  -14.0890   -7.0050 C.ar      1 IRG         0.1000 
     20 CAP        23.2420  -19.0650   -9.7990 C.ar      1 IRG         0.0000 
     21 CAU        24.3650  -15.6630  -13.1980 C.3       1 IRG         0.0690 
     22 H1         25.8211  -12.6236   -5.6897 H         1 IRG         0.4000 
     23 H2         25.3493  -14.1798   -4.9559 H         1 IRG         0.4000 
     24 H3         21.6259  -22.6016  -10.3217 H         1 IRG         0.1500 
     25 H4         22.1322  -21.1446  -12.2621 H         1 IRG         0.1500 
     26 H5         22.1464  -21.7826   -8.0160 H         1 IRG         0.1500 
     27 H6         23.1333  -18.9225  -11.9331 H         1 IRG         0.1500 
     28 H7         23.1863  -19.5525   -7.6861 H         1 IRG         0.1500 
     29 H8         25.8063  -12.2783   -8.0672 H         1 IRG         0.1500 
     30 H9         25.3117  -13.2785  -10.2908 H         1 IRG         0.1500 
     31 H10        24.6714  -16.0110   -6.2391 H         1 IRG         0.1500 
     32 H11        26.5557  -16.3109  -13.2379 H         1 IRG         0.1000 
     33 H12        25.5308  -17.2144  -14.4041 H         1 IRG         0.1000 
     34 H13        24.6437  -14.9519  -15.3772 H         1 IRG         0.1000 
     35 H14        25.6686  -14.0484  -14.2110 H         1 IRG         0.1000 
     36 H15        24.8755  -14.0497  -11.8400 H         1 IRG         0.4000 
     37 H16        23.3622  -16.1041  -13.2969 H         1 IRG         0.1000 
@<TRIPOS>BOND
     1    1    2 ar   
     2    6    1 ar   
     3    2    3 ar   
     4    2   20 1    
     5    4    3 ar   
     6    5    4 ar   
     7    4   15 ar   
     8    6    5 ar   
     9    5   14 ar   
    10   18    6 1    
    11   19    7 1    
    12    9    8 ar   
    13   10    8 ar   
    14   11    9 ar   
    15   12   10 ar   
    16   20   11 ar   
    17   20   12 ar   
    18   14   13 ar   
    19   13   19 ar   
    20   15   19 ar   
    21   17   16 1    
    22   21   16 1    
    23   21   17 1    
    24   18   21 1    
    25    7   22 1    
    26    7   23 1    
    27    8   24 1    
    28    9   25 1    
    29   10   26 1    
    30   11   27 1    
    31   12   28 1    
    32   13   29 1    
    33   14   30 1    
    34   15   31 1    
    35   16   32 1    
    36   16   33 1    
    37   17   34 1    
    38   17   35 1    
    39   18   36 1    
    40   21   37 1    
@<TRIPOS>SUBSTRUCTURE
     1 IRG         1 PERM              0 ****  ****    0 ROOT 
@<TRIPOS>NORMAL
@<TRIPOS>ALT_TYPE
MMFF94_ALT_TYPE_SET 
MMFF94 16 CR3R 17 CR3R 21 CR3R 2 CB 4 CB 5 CB 6 CB 8 CB 9 CB 10 CB 11 CB \
12 CB 13 CB 14 CB 15 CB 19 CB 20 CB 24 HC 25 HC 26 HC \
27 HC 28 HC 29 HC 30 HC 31 HC 32 HC 33 HC 34 HC 35 HC \
37 HC 22 HNCC 23 HNCC 36 HNCC 1 NPYD 3 NPYD 18 NC=N 7 NC=C \

