#	Name:			3gy4_ligand
#	Creating user name:	suminyi
#	Creation time:		Sun Sep 30 06:51:11 2018

#	Modifying user name:	suminyi
#	Modification time:	Sun Sep 30 06:51:11 2018

@<TRIPOS>MOLECULE
3gy4_ligand
   20    20     1     1     0
SMALL
MMFF94_CHARGES


@<TRIPOS>ATOM
      1 N2         -2.6750   14.0030   13.8070 N.pl3     1 MOL        -1.1924 
      2 N3         -1.8620   12.0580   14.8170 N.pl3     1 MOL        -1.1924 
      3 C7         -2.2230   13.3760   14.9490 C.cat     1 MOL         0.7308 
      4 C4         -1.9320   14.1170   16.1980 C.ar      1 MOL        -0.0220 
      5 C2         -1.2870   14.1120   18.5320 C.ar      1 MOL        -0.1500 
      6 C3         -1.5780   13.4250   17.3620 C.ar      1 MOL        -0.1500 
      7 C5         -1.9780   15.5170   16.2330 C.ar      1 MOL        -0.1500 
      8 C6         -1.6580   16.2020   17.4020 C.ar      1 MOL        -0.1500 
      9 C1         -1.3090   15.4940   18.5410 C.ar      1 MOL         0.1000 
     10 N1         -0.9240   16.1410   19.6600 N.pl3     1 MOL        -0.9000 
     11 H1         -3.2260   14.8420   13.9800 H         1 MOL         0.6690 
     12 H2         -3.1020   13.3600   13.1280 H         1 MOL         0.6690 
     13 H3         -2.0060   11.4850   15.6370 H         1 MOL         0.6690 
     14 H4         -2.2380   11.5910   13.9870 H         1 MOL         0.6690 
     15 H5         -1.0170   13.5630   19.4290 H         1 MOL         0.1500 
     16 H6         -1.5240   12.3430   17.3780 H         1 MOL         0.1500 
     17 H7         -2.2140   16.0940   15.3420 H         1 MOL         0.1500 
     18 H8         -1.6590   17.2880   17.4040 H         1 MOL         0.1500 
     19 H9         -0.4160   15.5440   20.3120 H         1 MOL         0.4000 
     20 H10        -0.5210   17.0590   19.5170 H         1 MOL         0.4000 
@<TRIPOS>BOND
     1    1    3 ar   
     2    3    2 ar   
     3    3    4 1    
     4    4    6 ar   
     5    4    7 ar   
     6    6    5 ar   
     7    5    9 ar   
     8    7    8 ar   
     9    8    9 ar   
    10    9   10 1    
    11    1   11 1    
    12    1   12 1    
    13    2   13 1    
    14    2   14 1    
    15    5   15 1    
    16    6   16 1    
    17    7   17 1    
    18    8   18 1    
    19   10   19 1    
    20   10   20 1    
@<TRIPOS>SUBSTRUCTURE
     1 MOL         1 PERM              0 ****  ****    0 ROOT 
@<TRIPOS>NORMAL
@<TRIPOS>ALT_TYPE
MMFF94_ALT_TYPE_SET 
MMFF94 4 CB 5 CB 6 CB 7 CB 8 CB 9 CB 3 CNN+ 15 HC 16 HC 17 HC 18 HC \
19 HNCC 20 HNCC 11 HN 12 HN 13 HN 14 HN 1 NCN+ 2 NCN+ \
10 NC=C
