#	Name:			3ehy_ligand
#	Creating user name:	suminyi
#	Creation time:		Sun Sep 30 06:48:43 2018

#	Modifying user name:	suminyi
#	Modification time:	Sun Sep 30 06:48:43 2018

@<TRIPOS>MOLECULE
3ehy_ligand
   29    29     1     1     0
SMALL
MMFF94_CHARGES


@<TRIPOS>ATOM
      1 O4         -1.0810   -6.6970   -4.0090 O.2       1 TBL        -0.6500 
      2 S1         -0.8610   -5.5850   -4.8790 S.o2      1 TBL         1.4470 
      3 O3          0.3440   -5.6660   -5.6630 O.2       1 TBL        -0.6500 
      4 N1         -0.8580   -4.2810   -3.9320 N.am      1 TBL        -0.9137 
      5 C2         -0.5330   -2.9680   -4.5110 C.3       1 TBL         0.2497 
      6 C10         0.2790   -2.1440   -3.5090 C.3       1 TBL         0.0000 
      7 C1         -1.7860   -2.2190   -4.8830 C.2       1 TBL         0.9060 
      8 O2         -1.8580   -1.5180   -5.8730 O.co2     1 TBL        -0.9000 
      9 O1         -2.8600   -2.3300   -4.1020 O.co2     1 TBL        -0.9000 
     10 C3         -2.0710   -5.6230   -5.9680 C.ar      1 TBL        -0.0090 
     11 C4         -3.3590   -5.9330   -5.5370 C.ar      1 TBL        -0.1500 
     12 C5         -4.4230   -6.0050   -6.4540 C.ar      1 TBL        -0.1500 
     13 C6         -4.2010   -5.8490   -7.8280 C.ar      1 TBL         0.0825 
     14 C8         -2.9360   -5.5380   -8.2930 C.ar      1 TBL        -0.1500 
     15 C9         -1.8730   -5.4200   -7.3570 C.ar      1 TBL        -0.1500 
     16 O5         -5.2910   -5.9330   -8.6790 O.3       1 TBL        -0.3625 
     17 C7         -5.3380   -6.7060   -9.8690 C.3       1 TBL         0.2800 
     18 H1         -1.0751   -4.3635   -2.9593 H         1 TBL         0.4200 
     19 H2          0.0694   -3.1221   -5.4184 H         1 TBL         0.0000 
     20 H3          0.5182   -1.1644   -3.9484 H         1 TBL         0.0000 
     21 H4          1.2116   -2.6752   -3.2678 H         1 TBL         0.0000 
     22 H5         -0.3091   -2.0001   -2.5906 H         1 TBL         0.0000 
     23 H6         -3.5428   -6.1204   -4.4853 H         1 TBL         0.1500 
     24 H7         -5.4291   -6.1838   -6.0922 H         1 TBL         0.1500 
     25 H8         -2.7587   -5.3871   -9.3517 H         1 TBL         0.1500 
     26 H9         -0.8818   -5.1674   -7.7157 H         1 TBL         0.1500 
     27 H10        -6.3225   -6.5867  -10.3450 H         1 TBL         0.0000 
     28 H11        -5.1751   -7.7660   -9.6244 H         1 TBL         0.0000 
     29 H12        -4.5530   -6.3642  -10.5596 H         1 TBL         0.0000 
@<TRIPOS>BOND
     1    1    2 2    
     2    2    3 2    
     3    2    4 am   
     4    2   10 1    
     5    4    5 1    
     6    5    6 1    
     7    5    7 1    
     8    7    8 ar   
     9    7    9 ar   
    10   10   11 ar   
    11   10   15 ar   
    12   11   12 ar   
    13   12   13 ar   
    14   13   14 ar   
    15   13   16 1    
    16   14   15 ar   
    17   16   17 1    
    18    4   18 1    
    19    5   19 1    
    20    6   20 1    
    21    6   21 1    
    22    6   22 1    
    23   11   23 1    
    24   12   24 1    
    25   14   25 1    
    26   15   26 1    
    27   17   27 1    
    28   17   28 1    
    29   17   29 1    
@<TRIPOS>SUBSTRUCTURE
     1 TBL         1 PERM              0 ****  ****    0 ROOT 
@<TRIPOS>NORMAL
@<TRIPOS>ALT_TYPE
MMFF94_ALT_TYPE_SET 
MMFF94 5 CR 6 CR 17 CR 10 CB 11 CB 12 CB 13 CB 14 CB 15 CB 7 CO2M 19 HC \
20 HC 21 HC 22 HC 23 HC 24 HC 25 HC 26 HC 27 HC 28 HC \
29 HC 18 HNSO 8 O2CM 9 O2CM 1 O2S 3 O2S 16 OC=C 4 NSO2 \
2 SO2N 
