#	Name:			3ehy_ligand
#	Creating user name:	suminyi
#	Creation time:		Sun Sep 30 06:50:57 2018

#	Modifying user name:	suminyi
#	Modification time:	Sun Sep 30 06:50:57 2018

@<TRIPOS>MOLECULE
3ehy_ligand
   29    29     1     1     0
SMALL
MMFF94_CHARGES


@<TRIPOS>ATOM
      1 O4         -1.5770   -6.9090   -3.9140 O.2       1 MOL        -0.6500 
      2 S1         -1.0760   -5.9910   -4.9250 S.o2      1 MOL         1.4470 
      3 O3          0.2020   -6.0530   -5.5980 O.2       1 MOL        -0.6500 
      4 N1         -0.9400   -4.6500   -3.9700 N.am      1 MOL        -0.9137 
      5 C2         -0.8510   -3.2990   -4.6060 C.3       1 MOL         0.2497 
      6 C10        -0.0800   -2.3720   -3.6400 C.3       1 MOL         0.0000 
      7 C1         -2.1610   -2.6420   -5.0700 C.2       1 MOL         0.9060 
      8 O2         -2.2430   -1.4400   -5.2760 O.co2     1 MOL        -0.9000 
      9 O1         -3.2410   -2.7380   -4.4630 O.co2     1 MOL        -0.9000 
     10 C3         -2.4120   -5.6770   -6.0440 C.ar      1 MOL        -0.0090 
     11 C4         -3.6970   -6.0410   -5.6490 C.ar      1 MOL        -0.1500 
     12 C5         -4.7230   -6.0850   -6.5800 C.ar      1 MOL        -0.1500 
     13 C6         -4.4510   -5.8060   -7.9110 C.ar      1 MOL         0.0825 
     14 C8         -3.1860   -5.3640   -8.2980 C.ar      1 MOL        -0.1500 
     15 C9         -2.1550   -5.2930   -7.3620 C.ar      1 MOL        -0.1500 
     16 O5         -5.4830   -5.8900   -8.8060 O.3       1 MOL        -0.3625 
     17 C7         -5.5480   -6.8680   -9.8520 C.3       1 MOL         0.2800 
     18 H1         -1.6620   -4.8540   -3.2940 H         1 MOL         0.4200 
     19 H2         -0.2450   -3.3870   -5.5130 H         1 MOL         0.0000 
     20 H3          0.1270   -1.4070   -4.1110 H         1 MOL         0.0000 
     21 H4          0.8840   -2.8150   -3.3810 H         1 MOL         0.0000 
     22 H5         -0.6420   -2.2020   -2.7200 H         1 MOL         0.0000 
     23 H6         -3.8860   -6.3480   -4.6260 H         1 MOL         0.1500 
     24 H7         -5.7360   -6.3580   -6.2860 H         1 MOL         0.1500 
     25 H8         -3.0040   -5.0680   -9.3270 H         1 MOL         0.1500 
     26 H9         -1.1510   -4.9780   -7.6710 H         1 MOL         0.1500 
     27 H10        -6.4000   -6.6330  -10.4950 H         1 MOL         0.0000 
     28 H11        -5.6860   -7.8550   -9.4050 H         1 MOL         0.0000 
     29 H12        -4.6280   -6.8390  -10.4360 H         1 MOL         0.0000 
@<TRIPOS>BOND
     1    1    2 2    
     2    2    3 2    
     3    2    4 am   
     4    2   10 1    
     5    4    5 1    
     6    5    6 1    
     7    5    7 1    
     8    7    8 ar   
     9    7    9 ar   
    10   10   11 ar   
    11   10   15 ar   
    12   11   12 ar   
    13   12   13 ar   
    14   13   14 ar   
    15   13   16 1    
    16   14   15 ar   
    17   16   17 1    
    18    4   18 1    
    19    5   19 1    
    20    6   20 1    
    21    6   21 1    
    22    6   22 1    
    23   11   23 1    
    24   12   24 1    
    25   14   25 1    
    26   15   26 1    
    27   17   27 1    
    28   17   28 1    
    29   17   29 1    
@<TRIPOS>SUBSTRUCTURE
     1 MOL         1 PERM              0 ****  ****    0 ROOT 
@<TRIPOS>NORMAL
@<TRIPOS>ALT_TYPE
MMFF94_ALT_TYPE_SET 
MMFF94 5 CR 6 CR 17 CR 10 CB 11 CB 12 CB 13 CB 14 CB 15 CB 7 CO2M 19 HC \
20 HC 21 HC 22 HC 23 HC 24 HC 25 HC 26 HC 27 HC 28 HC \
29 HC 18 HNSO 8 O2CM 9 O2CM 1 O2S 3 O2S 16 OC=C 4 NSO2 \
2 SO2N 
