#	Name:			3l7b_ligand
#	Creating user name:	suminyi
#	Creation time:		Sun Sep 30 06:51:11 2018

#	Modifying user name:	suminyi
#	Modification time:	Sun Sep 30 06:51:11 2018

@<TRIPOS>MOLECULE
3l7b_ligand
   33    34     1     1     0
SMALL
MMFF94_CHARGES


@<TRIPOS>ATOM
      1 C1         33.3400   23.1390   28.1000 C.3       1 MOL         0.5801 
      2 N1         34.2560   23.7680   29.0780 N.am      1 MOL        -0.4691 
      3 C2         33.5620   23.4540   26.5840 C.3       1 MOL         0.2800 
      4 N2         34.5740   24.6980   31.2060 N.2       1 MOL        -0.6610 
      5 O2         33.1340   24.8100   26.3300 O.3       1 MOL        -0.6800 
      6 C3         32.7100   22.5210   25.6770 C.3       1 MOL         0.3400 
      7 F3         33.1510   22.5890   24.4040 F         1 MOL        -0.3400 
      8 N3         36.5920   24.9900   32.1370 N.pl3     1 MOL        -0.8500 
      9 C4         32.7040   21.0430   26.1260 C.3       1 MOL         0.2800 
     10 O4         31.6840   20.3180   25.4230 O.3       1 MOL        -0.6800 
     11 C5         32.4020   20.9400   27.6340 C.3       1 MOL         0.2800 
     12 O5         33.3880   21.7110   28.3490 O.3       1 MOL        -0.5600 
     13 C6         32.3850   19.4840   28.1560 C.3       1 MOL         0.2800 
     14 O6         33.4240   18.6990   27.5760 O.3       1 MOL        -0.6800 
     15 C7         35.6300   23.6570   28.8840 C.2       1 MOL        -0.0410 
     16 C8         36.4510   24.0820   29.9040 C.2       1 MOL        -0.1356 
     17 C9         35.8750   24.6390   31.0730 C.2       1 MOL         0.4856 
     18 C10        33.7270   24.2640   30.2220 C.2       1 MOL         0.8410 
     19 O10        32.5210   24.2640   30.4040 O.2       1 MOL        -0.5700 
     20 H1         32.3220   23.4770   28.3430 H         1 MOL         0.0000 
     21 H2         34.6180   23.3330   26.3230 H         1 MOL         0.0000 
     22 H4         33.1940   25.0130   25.3370 H         1 MOL         0.4000 
     23 H5         31.6790   22.8810   25.6760 H         1 MOL         0.0000 
     24 H7         33.6900   20.6120   25.9210 H         1 MOL         0.0000 
     25 H8         31.8800   19.3520   25.5610 H         1 MOL         0.4000 
     26 H9         31.4220   21.3770   27.8320 H         1 MOL         0.0000 
     27 H10        31.4230   19.0320   27.9010 H         1 MOL         0.0000 
     28 H11        32.4890   19.4770   29.2410 H         1 MOL         0.0000 
     29 H12        34.2550   18.8100   28.1380 H         1 MOL         0.4000 
     30 H13        35.9640   23.2080   27.9530 H         1 MOL         0.1500 
     31 H14        37.5290   23.9970   29.8320 H         1 MOL         0.1500 
     32 H3         37.4330   24.4440   32.2680 H         1 MOL         0.4000 
     33 H6         36.0110   25.1380   32.9490 H         1 MOL         0.4000 
@<TRIPOS>BOND
     1    2    1 1    
     2    1    3 1    
     3    1   12 1    
     4    2   15 1    
     5   18    2 am   
     6    3    5 1    
     7    3    6 1    
     8    4   17 2    
     9    4   18 1    
    10    6    7 1    
    11    6    9 1    
    12   17    8 1    
    13    9   10 1    
    14    9   11 1    
    15   11   12 1    
    16   11   13 1    
    17   13   14 1    
    18   15   16 2    
    19   16   17 1    
    20   18   19 2    
    21    1   20 1    
    22    3   21 1    
    23    5   22 1    
    24    6   23 1    
    25    9   24 1    
    26   10   25 1    
    27   11   26 1    
    28   13   27 1    
    29   13   28 1    
    30   14   29 1    
    31   15   30 1    
    32   16   31 1    
    33    8   32 1    
    34    8   33 1    
@<TRIPOS>SUBSTRUCTURE
     1 MOL         1 PERM              0 ****  ****    0 ROOT 
@<TRIPOS>NORMAL
@<TRIPOS>ALT_TYPE
MMFF94_ALT_TYPE_SET 
MMFF94 1 CR 3 CR 6 CR 9 CR 11 CR 13 CR 18 C=ON 17 C=N 15 C=C 16 C=C \
20 HC 21 HC 23 HC 24 HC 26 HC 27 HC 28 HC 30 HC 31 HC \
32 HNCN 33 HNCN 22 HOR 25 HOR 29 HOR 19 O=CN 5 OR 10 OR \
12 OR 14 OR 4 N=C 2 NC=O 8 NC=N 7 F 
