#	Name:			3dx2_ligand
#	Creating user name:	suminyi
#	Creation time:		Sun Sep 30 06:48:39 2018

#	Modifying user name:	suminyi
#	Modification time:	Sun Sep 30 06:48:39 2018

@<TRIPOS>MOLECULE
3dx2_ligand
   26    26     1     1     0
SMALL
MMFF94_CHARGES


@<TRIPOS>ATOM
      1 O6         28.2600   65.2430    8.8500 O.2       1 MZB        -0.5000 
      2 S6         29.0250   66.3980    7.8910 S.o       1 MZB         0.1130 
      3 C7         28.5970   65.8650    6.2690 C.3       1 MZB         0.1935 
      4 C1         30.7270   65.8680    7.9150 C.3       1 MZB         0.1935 
      5 C5         31.1830   65.7400    9.3620 C.3       1 MZB         0.5030 
      6 N5         30.9620   64.4100    9.9360 N.4       1 MZB        -0.8530 
      7 C4         32.6860   66.1090    9.3780 C.3       1 MZB         0.2800 
      8 O4         33.4900   64.9800    9.7260 O.3       1 MZB        -0.6800 
      9 C3         33.0060   66.6360    7.9750 C.3       1 MZB         0.2800 
     10 O3         33.6370   65.6110    7.1770 O.3       1 MZB        -0.6800 
     11 C2         31.6320   66.9930    7.4050 C.3       1 MZB         0.2800 
     12 O2         31.6310   67.1620    5.9810 O.3       1 MZB        -0.6800 
     13 H2         29.0423   66.5469    5.5296 H         1 MZB         0.0000 
     14 H3         27.5026   65.8687    6.1587 H         1 MZB         0.0000 
     15 H4         28.9787   64.8465    6.1050 H         1 MZB         0.0000 
     16 H5         30.8567   64.9354    7.3463 H         1 MZB         0.0000 
     17 H6         30.6253   66.4656    9.9724 H         1 MZB         0.0000 
     18 H7         31.2856   64.3980   10.8906 H         1 MZB         0.4500 
     19 H8         31.4705   63.7241    9.4003 H         1 MZB         0.4500 
     20 H9         29.9779   64.1930    9.9121 H         1 MZB         0.4500 
     21 H10        32.8640   66.9039   10.1172 H         1 MZB         0.0000 
     22 H11        33.3536   64.2875    9.0902 H         1 MZB         0.4000 
     23 H12        33.6570   67.5213    8.0234 H         1 MZB         0.0000 
     24 H13        34.4453   65.3384    7.5952 H         1 MZB         0.4000 
     25 H14        31.2968   67.9453    7.8418 H         1 MZB         0.0000 
     26 H15        31.9104   66.3539    5.5671 H         1 MZB         0.4000 
@<TRIPOS>BOND
     1    1    2 2    
     2    2    3 1    
     3    2    4 1    
     4    4    5 1    
     5    4   11 1    
     6    5    6 1    
     7    5    7 1    
     8    7    8 1    
     9    7    9 1    
    10    9   10 1    
    11    9   11 1    
    12   11   12 1    
    13    3   13 1    
    14    3   14 1    
    15    3   15 1    
    16    4   16 1    
    17    5   17 1    
    18    6   18 1    
    19    6   19 1    
    20    6   20 1    
    21    7   21 1    
    22    8   22 1    
    23    9   23 1    
    24   10   24 1    
    25   11   25 1    
    26   12   26 1    
@<TRIPOS>SUBSTRUCTURE
     1 MZB         1 PERM              0 ****  ****    0 ROOT 
@<TRIPOS>NORMAL
@<TRIPOS>ALT_TYPE
MMFF94_ALT_TYPE_SET 
MMFF94 3 CR 4 CR 5 CR 7 CR 9 CR 11 CR 13 HC 14 HC 15 HC 16 HC 17 HC \
21 HC 23 HC 25 HC 18 HNR+ 19 HNR+ 20 HNR+ 22 HOR 24 HOR \
26 HOR 1 O=S 8 OR 10 OR 12 OR 6 NR+ 2 S=O 
