#	Name:			3dx2_ligand
#	Creating user name:	suminyi
#	Creation time:		Sun Sep 30 06:51:00 2018

#	Modifying user name:	suminyi
#	Modification time:	Sun Sep 30 06:51:00 2018

@<TRIPOS>MOLECULE
3dx2_ligand
   26    26     1     1     0
SMALL
MMFF94_CHARGES


@<TRIPOS>ATOM
      1 O6         28.2070   65.1750    8.6710 O.2       1 MOL        -0.5000 
      2 S6         28.9430   66.3110    8.0230 S.o       1 MOL         0.1130 
      3 C7         28.5950   66.0620    6.2860 C.3       1 MOL         0.1935 
      4 C1         30.6870   65.8550    8.0220 C.3       1 MOL         0.1935 
      5 C5         31.2150   65.8090    9.4590 C.3       1 MOL         0.5030 
      6 N5         30.9080   64.5350   10.1870 N.4       1 MOL        -0.8530 
      7 C4         32.7300   66.0410    9.3340 C.3       1 MOL         0.2800 
      8 O4         33.3380   64.7690    9.4800 O.3       1 MOL        -0.6800 
      9 C3         32.9890   66.6140    7.9230 C.3       1 MOL         0.2800 
     10 O3         33.6470   65.6570    7.0880 O.3       1 MOL        -0.6800 
     11 C2         31.5930   66.9000    7.3490 C.3       1 MOL         0.2800 
     12 O2         31.5740   66.8230    5.9180 O.3       1 MOL        -0.6800 
     13 H2         29.2260   66.7240    5.7060 H         1 MOL         0.0000 
     14 H3         27.5550   66.3140    6.1030 H         1 MOL         0.0000 
     15 H4         28.8120   65.0230    6.0320 H         1 MOL         0.0000 
     16 H5         30.8230   64.8870    7.5340 H         1 MOL         0.0000 
     17 H6         30.7870   66.6340   10.0370 H         1 MOL         0.0000 
     18 H7         31.3230   64.6160   11.1580 H         1 MOL         0.4500 
     19 H8         31.4820   63.7460    9.8040 H         1 MOL         0.4500 
     20 H9         29.9250   64.2720   10.2460 H         1 MOL         0.4500 
     21 H10        33.0920   66.7150   10.1180 H         1 MOL         0.0000 
     22 H11        33.0960   64.2310    8.6450 H         1 MOL         0.4000 
     23 H12        33.5910   67.5220    7.9890 H         1 MOL         0.0000 
     24 H13        34.4600   66.1580    6.7080 H         1 MOL         0.4000 
     25 H14        31.2900   67.8930    7.6660 H         1 MOL         0.0000 
     26 H15        32.4720   67.1600    5.5680 H         1 MOL         0.4000 
@<TRIPOS>BOND
     1    1    2 2    
     2    2    3 1    
     3    2    4 1    
     4    4    5 1    
     5    4   11 1    
     6    5    6 1    
     7    5    7 1    
     8    7    8 1    
     9    7    9 1    
    10    9   10 1    
    11    9   11 1    
    12   11   12 1    
    13    3   13 1    
    14    3   14 1    
    15    3   15 1    
    16    4   16 1    
    17    5   17 1    
    18    6   18 1    
    19    6   19 1    
    20    6   20 1    
    21    7   21 1    
    22    8   22 1    
    23    9   23 1    
    24   10   24 1    
    25   11   25 1    
    26   12   26 1    
@<TRIPOS>SUBSTRUCTURE
     1 MOL         1 PERM              0 ****  ****    0 ROOT 
@<TRIPOS>NORMAL
@<TRIPOS>ALT_TYPE
MMFF94_ALT_TYPE_SET 
MMFF94 3 CR 4 CR 5 CR 7 CR 9 CR 11 CR 13 HC 14 HC 15 HC 16 HC 17 HC \
21 HC 23 HC 25 HC 18 HNR+ 19 HNR+ 20 HNR+ 22 HOR 24 HOR \
26 HOR 1 O=S 8 OR 10 OR 12 OR 6 NR+ 2 S=O 
