3dx2_ligand

Created by X-TOOL on Fri Sep 26 17:34:43 2014
 27 27  0  0  0  0  0  0  0  0999 V2000
   28.2600   65.2430    8.8500  O 0  0  0  2  0  2
   29.0250   66.3980    7.8910  S 0  0  0  1  0  3
   28.5970   65.8650    6.2690  C 0  0  0  4  0  4
   30.7270   65.8680    7.9150  C 0  0  0  2  0  4
   31.1830   65.7400    9.3620  C 0  0  0  2  0  4
   30.9620   64.4100    9.9360  N 0  3  0  4  0  4
   32.6860   66.1090    9.3780  C 0  0  0  2  0  4
   33.4900   64.9800    9.7260  O 0  0  0  2  0  2
   33.0060   66.6360    7.9750  C 0  0  0  2  0  4
   33.6370   65.6110    7.1770  O 0  0  0  2  0  2
   31.6320   66.9930    7.4050  C 0  0  0  2  0  4
   31.6310   67.1620    5.9810  O 0  0  0  2  0  2
   27.3247   65.2648    8.6846  H 0  0  0  1  0  1
   29.0423   66.5469    5.5296  H 0  0  0  1  0  1
   27.5026   65.8687    6.1587  H 0  0  0  1  0  1
   28.9787   64.8465    6.1050  H 0  0  0  1  0  1
   30.8567   64.9354    7.3463  H 0  0  0  1  0  1
   30.6253   66.4656    9.9724  H 0  0  0  1  0  1
   31.2856   64.3980   10.8906  H 0  0  0  1  0  1
   31.4705   63.7241    9.4003  H 0  0  0  1  0  1
   29.9779   64.1930    9.9121  H 0  0  0  1  0  1
   32.8640   66.9039   10.1172  H 0  0  0  1  0  1
   33.3536   64.2875    9.0902  H 0  0  0  1  0  1
   33.6570   67.5213    8.0234  H 0  0  0  1  0  1
   34.4453   65.3384    7.5952  H 0  0  0  1  0  1
   31.2968   67.9453    7.8418  H 0  0  0  1  0  1
   31.9104   66.3539    5.5671  H 0  0  0  1  0  1
  1  2  1  0  0  2
  2  3  1  0  0  2
  2  4  1  0  0  2
  4  5  1  0  0  1
  4 11  1  0  0  1
  5  6  1  0  0  2
  5  7  1  0  0  1
  7  8  1  0  0  2
  7  9  1  0  0  1
  9 10  1  0  0  2
  9 11  1  0  0  1
 11 12  1  0  0  2
  1 13  1  0  0  2
  3 14  1  0  0  2
  3 15  1  0  0  2
  3 16  1  0  0  2
  4 17  1  0  0  2
  5 18  1  0  0  2
  6 19  1  0  0  2
  6 20  1  0  0  2
  6 21  1  0  0  2
  7 22  1  0  0  2
  8 23  1  0  0  2
  9 24  1  0  0  2
 10 25  1  0  0  2
 11 26  1  0  0  2
 12 27  1  0  0  2
M  END
> <MOLECULAR_FORMULA>
C6H15NO4S

> <MOLECULAR_WEIGHT>
197.1

> <NUM_HB_ATOMS>
6  

> <NUM_ROTOR>
1  

> <XLOGP2>
-1.72

$$$$
