#	Name:			2wer_ligand
#	Creating user name:	suminyi
#	Creation time:		Sun Sep 30 06:51:10 2018

#	Modifying user name:	suminyi
#	Modification time:	Sun Sep 30 06:51:10 2018

@<TRIPOS>MOLECULE
2wer_ligand
   42    44     1     1     0
SMALL
MMFF94_CHARGES


@<TRIPOS>ATOM
      1 C1          2.3430   55.5240   -5.9360 C.2       1 MOL         0.6338 
      2 C2          3.2050   55.6720   -4.6970 C.ar      1 MOL         0.0862 
      3 C3          4.1390   56.7160   -4.7170 C.ar      1 MOL         0.0825 
      4 C4          5.1330   56.8320   -3.7670 C.ar      1 MOL        -0.1500 
      5 C5          5.1670   55.9730   -2.6960 C.ar      1 MOL         0.0825 
      6 C6          4.1610   55.0190   -2.5510 C.ar      1 MOL         0.1770 
      7 C7          3.1790   54.8320   -3.5500 C.ar      1 MOL        -0.1435 
      8 C8          2.0040   53.8810   -3.2430 C.3       1 MOL         0.2045 
      9 C9          2.3550   52.4600   -2.8440 C.2       1 MOL         0.4946 
     10 C10         3.2970   51.6620   -3.6550 C.2       1 MOL        -0.1356 
     11 C11         3.8780   51.9580   -4.8250 C.2       1 MOL        -0.1500 
     12 C12         4.7770   51.0710   -5.5420 C.2       1 MOL        -0.1500 
     13 C13         5.0890   51.2140   -6.8370 C.2       1 MOL        -0.1900 
     14 C14         4.5650   52.2880   -7.7240 C.3       1 MOL         0.0880 
     15 C15         3.1220   52.2940   -8.1160 C.3       1 MOL        -0.0470 
     16 C16         2.4080   53.5810   -8.5080 C.3       1 MOL         0.0950 
     17 C17         1.2930   54.0480   -7.5390 C.3       1 MOL         0.2800 
     18 C18         0.1740   53.0190   -7.3790 C.3       1 MOL         0.0000 
     19 O1          1.8330   54.3060   -6.2130 O.3       1 MOL        -0.4300 
     20 O2          2.1740   56.4460   -6.7180 O.2       1 MOL        -0.5700 
     21 O3          4.1460   57.6380   -5.6970 O.3       1 MOL        -0.5325 
     22 O4          6.1880   56.0990   -1.8020 O.3       1 MOL        -0.5325 
     23 Cl1         4.1660   54.1020   -1.0820 Cl        1 MOL        -0.1770 
     24 O5          1.8480   51.9510   -1.8680 O.2       1 MOL        -0.5700 
     25 O6          4.1420   51.8730   -9.0250 O.3       1 MOL        -0.2960 
     26 H1          5.8720   57.6200   -3.8750 H         1 MOL         0.1500 
     27 H2          1.2690   53.8240   -4.0350 H         1 MOL         0.0000 
     28 H3          1.4620   54.3140   -2.4000 H         1 MOL         0.0000 
     29 H4          3.5250   50.6910   -3.2220 H         1 MOL         0.1500 
     30 H5          3.6610   52.9110   -5.2990 H         1 MOL         0.1500 
     31 H6          5.2000   50.2510   -4.9600 H         1 MOL         0.1500 
     32 H7          5.7800   50.5180   -7.3080 H         1 MOL         0.1500 
     33 H8          5.1100   53.2290   -7.6770 H         1 MOL         0.1000 
     34 H9          2.4770   51.4870   -7.7830 H         1 MOL         0.1000 
     35 H10         1.9630   53.4340   -9.4920 H         1 MOL         0.0000 
     36 H11         3.1300   54.3880   -8.6110 H         1 MOL         0.0000 
     37 H12         0.8290   54.9570   -7.9400 H         1 MOL         0.0000 
     38 H13        -0.6170   53.4840   -6.7970 H         1 MOL         0.0000 
     39 H14         0.5170   52.1240   -6.8550 H         1 MOL         0.0000 
     40 H15        -0.2440   52.7380   -8.3480 H         1 MOL         0.0000 
     41 H16         3.4770   57.3790   -6.3730 H         1 MOL         0.4500 
     42 H17         6.9070   56.6110   -2.2210 H         1 MOL         0.4500 
@<TRIPOS>BOND
     1    1    2 1    
     2    1   19 1    
     3    1   20 2    
     4    2    3 ar   
     5    2    7 ar   
     6    3    4 ar   
     7    3   21 1    
     8    4    5 ar   
     9    5    6 ar   
    10    5   22 1    
    11    6    7 ar   
    12    6   23 1    
    13    7    8 1    
    14    8    9 1    
    15    9   10 1    
    16    9   24 2    
    17   10   11 2    
    18   11   12 1    
    19   12   13 2    
    20   13   14 1    
    21   14   15 1    
    22   14   25 1    
    23   15   16 1    
    24   15   25 1    
    25   16   17 1    
    26   17   18 1    
    27   17   19 1    
    28    4   26 1    
    29    8   27 1    
    30    8   28 1    
    31   10   29 1    
    32   11   30 1    
    33   12   31 1    
    34   13   32 1    
    35   14   33 1    
    36   15   34 1    
    37   16   35 1    
    38   16   36 1    
    39   17   37 1    
    40   18   38 1    
    41   18   39 1    
    42   18   40 1    
    43   21   41 1    
    44   22   42 1    
@<TRIPOS>SUBSTRUCTURE
     1 MOL         1 PERM              0 ****  ****    0 ROOT 
@<TRIPOS>NORMAL
@<TRIPOS>ALT_TYPE
MMFF94_ALT_TYPE_SET 
MMFF94 14 CR3R 15 CR3R 8 CR 16 CR 17 CR 18 CR 2 CB 3 CB 4 CB 5 CB 6 CB \
7 CB 1 COO 9 C=OR 10 C=C 11 C=C 12 C=C 13 C=C 26 HC 27 HC \
28 HC 29 HC 30 HC 31 HC 32 HC 33 HC 34 HC 35 HC 36 HC \
37 HC 38 HC 39 HC 40 HC 41 HOCC 42 HOCC 20 O=CO 24 O=CR \
19 OC=O 21 OC=C 22 OC=C 25 OR 23 CL 
