#	Name:			2wtv_ligand
#	Creating user name:	suminyi
#	Creation time:		Sun Sep 30 06:51:00 2018

#	Modifying user name:	suminyi
#	Modification time:	Sun Sep 30 06:51:01 2018

@<TRIPOS>MOLECULE
2wtv_ligand
   48    52     1     1     0
SMALL
MMFF94_CHARGES


@<TRIPOS>ATOM
      1 C13         0.6020   -7.9970   -4.4130 C.3       1 MOL         0.3895 
      2 C15         1.8830  -10.1160   -4.3700 C.2       1 MOL         0.2776 
      3 C17         0.9040  -12.4120   -4.8760 C.ar      1 MOL         0.1900 
      4 C20         1.9630  -14.4050   -3.9750 C.ar      1 MOL        -0.1500 
      5 C21         2.8710  -13.6100   -3.3010 C.ar      1 MOL        -0.1500 
      6 C22         2.8500  -12.2350   -3.4800 C.ar      1 MOL         0.1900 
      7 C24         3.2350   -9.4880   -4.5520 C.ar      1 MOL         0.0862 
      8 C26         5.4890   -9.7880   -5.4720 C.ar      1 MOL         0.1770 
      9 C28         5.8750   -8.5780   -4.9330 C.ar      1 MOL        -0.1500 
     10 O01         9.6530   -4.2380   -0.4280 O.co2     1 MOL        -0.9000 
     11 C02         8.7120   -3.5350   -0.1150 C.2       1 MOL         0.9790 
     12 O03         8.8120   -2.3270    0.0660 O.co2     1 MOL        -0.9000 
     13 C04         7.3310   -4.1390   -0.0490 C.ar      1 MOL        -0.1790 
     14 C05         7.0600   -5.4400   -0.4940 C.ar      1 MOL        -0.1500 
     15 C06         5.7370   -5.8860   -0.6030 C.ar      1 MOL        -0.1500 
     16 C07         4.6780   -5.0570   -0.2210 C.ar      1 MOL         0.1000 
     17 N08         3.3510   -5.3570   -0.4130 N.pl3     1 MOL        -0.6000 
     18 C09         2.6830   -5.9770   -1.4030 C.ar      1 MOL         0.7200 
     19 N10         1.3590   -5.8100   -1.4060 N.ar      1 MOL        -0.6200 
     20 C11         0.6970   -6.4930   -2.3640 C.ar      1 MOL         0.1600 
     21 C12         1.3410   -7.2860   -3.3050 C.ar      1 MOL        -0.1435 
     22 N14         0.7680   -9.4650   -4.3510 N.2       1 MOL        -0.6960 
     23 C16         1.8750  -11.6060   -4.2770 C.ar      1 MOL         0.0862 
     24 F18         0.0130  -11.8820   -5.7360 F         1 MOL        -0.1900 
     25 C19         1.0180  -13.8040   -4.7990 C.ar      1 MOL        -0.1500 
     26 F23         3.6860  -11.5230   -2.7020 F         1 MOL        -0.1900 
     27 C25         4.2080  -10.2540   -5.2280 C.ar      1 MOL        -0.1500 
     28 Cl1         6.5960  -10.7400   -6.4000 Cl        1 MOL        -0.1770 
     29 C29         4.9490   -7.8170   -4.2360 C.ar      1 MOL        -0.1500 
     30 C30         3.5970   -8.1920   -4.1150 C.ar      1 MOL         0.0000 
     31 C31         2.7250   -7.3520   -3.2210 C.ar      1 MOL         0.3100 
     32 N32         3.3770   -6.6660   -2.2850 N.ar      1 MOL        -0.6200 
     33 C33         4.9660   -3.8410    0.3820 C.ar      1 MOL        -0.1500 
     34 C34         6.2730   -3.3710    0.4380 C.ar      1 MOL        -0.1500 
     35 H1          0.9430   -7.6410   -5.3870 H         1 MOL         0.0000 
     36 H2         -0.4680   -7.7730   -4.3500 H         1 MOL         0.0000 
     37 H3          1.9940  -15.4840   -3.8380 H         1 MOL         0.1500 
     38 H4          3.5870  -14.0590   -2.6130 H         1 MOL         0.1500 
     39 H5          6.9090   -8.2530   -4.9860 H         1 MOL         0.1500 
     40 H6          7.8770   -6.0890   -0.8130 H         1 MOL         0.1500 
     41 H7          5.5510   -6.8830   -0.9930 H         1 MOL         0.1500 
     42 H8          2.7110   -4.8990    0.2200 H         1 MOL         0.4000 
     43 H9         -0.3830   -6.3760   -2.3670 H         1 MOL         0.1500 
     44 H10         0.3720  -14.4390   -5.3870 H         1 MOL         0.1500 
     45 H11         3.9660  -11.2330   -5.6240 H         1 MOL         0.1500 
     46 H12         5.3100   -6.9530   -3.6980 H         1 MOL         0.1500 
     47 H13         4.1640   -3.2120    0.7470 H         1 MOL         0.1500 
     48 H14         6.4740   -2.3840    0.8430 H         1 MOL         0.1500 
@<TRIPOS>BOND
     1   21    1 1    
     2    1   22 1    
     3    2    7 1    
     4   22    2 2    
     5    2   23 1    
     6   23    3 ar   
     7    3   24 1    
     8    3   25 ar   
     9    5    4 ar   
    10   25    4 ar   
    11    6    5 ar   
    12   23    6 ar   
    13    6   26 1    
    14    7   27 ar   
    15    7   30 ar   
    16    8    9 ar   
    17   27    8 ar   
    18    8   28 1    
    19    9   29 ar   
    20   11   10 ar   
    21   11   12 ar   
    22   13   11 1    
    23   14   13 ar   
    24   13   34 ar   
    25   15   14 ar   
    26   16   15 ar   
    27   17   16 1    
    28   16   33 ar   
    29   18   17 1    
    30   19   18 ar   
    31   18   32 ar   
    32   20   19 ar   
    33   20   21 ar   
    34   21   31 ar   
    35   29   30 ar   
    36   30   31 1    
    37   31   32 ar   
    38   33   34 ar   
    39    1   35 1    
    40    1   36 1    
    41    4   37 1    
    42    5   38 1    
    43    9   39 1    
    44   14   40 1    
    45   15   41 1    
    46   17   42 1    
    47   20   43 1    
    48   25   44 1    
    49   27   45 1    
    50   29   46 1    
    51   33   47 1    
    52   34   48 1    
@<TRIPOS>SUBSTRUCTURE
     1 MOL         1 PERM              0 ****  ****    0 ROOT 
@<TRIPOS>NORMAL
@<TRIPOS>ALT_TYPE
MMFF94_ALT_TYPE_SET 
MMFF94 1 CR 3 CB 4 CB 5 CB 6 CB 7 CB 8 CB 9 CB 13 CB 14 CB 15 CB 16 CB \
18 CB 20 CB 21 CB 23 CB 25 CB 27 CB 29 CB 30 CB 31 CB \
33 CB 34 CB 11 CO2M 2 C=N 35 HC 36 HC 37 HC 38 HC 39 HC \
40 HC 41 HC 43 HC 44 HC 45 HC 46 HC 47 HC 48 HC 42 HNCC \
10 O2CM 12 O2CM 19 NPYD 32 NPYD 22 N=C 17 NC=N 24 F \
26 F 28 CL 
