#	Name:			4qd6_ligand
#	Creating user name:	suminyi
#	Creation time:		Sun Sep 30 06:51:01 2018

#	Modifying user name:	suminyi
#	Modification time:	Sun Sep 30 06:51:01 2018

@<TRIPOS>MOLECULE
4qd6_ligand
   62    66     1     1     0
SMALL
MMFF94_CHARGES


@<TRIPOS>ATOM
      1 C1          5.0410   24.4230   20.4790 C.ar      1 MOL        -0.1500 
      2 C2          5.6550   24.8080   19.2750 C.ar      1 MOL        -0.0090 
      3 C3          4.8190   24.8960   18.1530 C.ar      1 MOL        -0.1500 
      4 C4          3.4630   24.6070   18.2690 C.ar      1 MOL         0.4100 
      5 N5          2.8840   24.2550   19.4230 N.ar      1 MOL        -0.6200 
      6 C6          3.6690   24.1660   20.5000 C.ar      1 MOL         0.4100 
      7 S7          7.4390   25.1580   19.1460 S.o2      1 MOL         1.3180 
      8 C8          7.7640   26.4230   20.3830 C.ar      1 MOL        -0.0090 
      9 C9          7.1460   27.6720   20.2900 C.ar      1 MOL        -0.1500 
     10 C10         7.4300   28.6600   21.2320 C.ar      1 MOL        -0.1500 
     11 C11         8.3330   28.4100   22.2630 C.ar      1 MOL        -0.1500 
     12 C12         8.9540   27.1650   22.3520 C.ar      1 MOL        -0.1500 
     13 C13         8.6780   26.1770   21.4110 C.ar      1 MOL        -0.1500 
     14 O14         7.5950   25.8510   17.8620 O.2       1 MOL        -0.6500 
     15 O15         8.2040   23.9750   19.5350 O.2       1 MOL        -0.6500 
     16 N16         2.6460   24.6840   17.1830 N.pl3     1 MOL        -0.8691 
     17 N17         3.0420   23.8510   21.6530 N.pl3     1 MOL        -0.5830 
     18 C18         1.7490   23.6490   22.0070 C.2       1 MOL         0.3718 
     19 C19         0.6090   23.3860   21.2050 C.2       1 MOL        -0.1500 
     20 C20        -0.4270   23.1490   22.0670 C.2       1 MOL        -0.2046 
     21 N21         0.0990   23.2450   23.3310 N.pl3     1 MOL         0.2996 
     22 N22         1.4120   23.5990   23.2900 N.2       1 MOL        -0.7068 
     23 C23         1.2810   24.1500   17.1840 C.3       1 MOL         0.3691 
     24 C24         1.2920   22.6390   16.8740 C.3       1 MOL         0.0000 
     25 C25        -0.1360   22.0500   16.9600 C.3       1 MOL         0.0000 
     26 C26        -1.1610   22.8360   16.1030 C.3       1 MOL         0.2800 
     27 C27        -1.0550   24.3670   16.2910 C.3       1 MOL         0.0000 
     28 C28         0.3960   24.8820   16.1660 C.3       1 MOL         0.0000 
     29 O29        -2.4880   22.4600   16.4870 O.3       1 MOL        -0.6800 
     30 C30        -1.7680   22.8060   21.6460 C.ar      1 MOL         0.0530 
     31 C31        -2.6860   22.3490   22.5970 C.ar      1 MOL        -0.1500 
     32 C32        -3.9660   21.9560   22.2090 C.ar      1 MOL        -0.1500 
     33 C33        -4.3510   22.0290   20.8740 C.ar      1 MOL        -0.1500 
     34 C34        -3.4540   22.5110   19.9250 C.ar      1 MOL        -0.1500 
     35 C35        -2.1720   22.9020   20.3100 C.ar      1 MOL        -0.1500 
     36 H1          5.6290   24.3260   21.3920 H         1 MOL         0.1500 
     37 H2          5.2270   25.1780   17.1860 H         1 MOL         0.1500 
     38 H3          6.4550   27.8820   19.4740 H         1 MOL         0.1500 
     39 H4          6.9490   29.6320   21.1560 H         1 MOL         0.1500 
     40 H5          8.5600   29.1850   22.9910 H         1 MOL         0.1500 
     41 H6          9.6600   26.9570   23.1530 H         1 MOL         0.1500 
     42 H7          9.1870   25.2150   21.4790 H         1 MOL         0.1500 
     43 H8          3.0980   24.8420   16.2950 H         1 MOL         0.4000 
     44 H9          3.6910   23.7320   22.4230 H         1 MOL         0.4000 
     45 H10         0.6310   23.3520   20.1270 H         1 MOL         0.1500 
     46 H11        -0.3980   23.1470   24.2210 H         1 MOL         0.2700 
     47 H12         0.8200   24.3090   18.1640 H         1 MOL         0.0000 
     48 H13         1.9440   22.1210   17.5830 H         1 MOL         0.0000 
     49 H14         1.7050   22.4730   15.8750 H         1 MOL         0.0000 
     50 H15        -0.4510   22.0510   18.0040 H         1 MOL         0.0000 
     51 H16        -0.1090   21.0070   16.6360 H         1 MOL         0.0000 
     52 H17        -0.9950   22.5960   15.0480 H         1 MOL         0.0000 
     53 H18        -1.4390   24.6330   17.2790 H         1 MOL         0.0000 
     54 H19        -1.6850   24.8660   15.5520 H         1 MOL         0.0000 
     55 H20         0.7700   24.7230   15.1510 H         1 MOL         0.0000 
     56 H21         0.4190   25.9560   16.3660 H         1 MOL         0.0000 
     57 H22        -2.6040   21.4970   16.3170 H         1 MOL         0.4000 
     58 H23        -2.4010   22.2670   23.6440 H         1 MOL         0.1500 
     59 H24        -4.6640   21.5720   22.9460 H         1 MOL         0.1500 
     60 H25        -5.3400   21.6850   20.5750 H         1 MOL         0.1500 
     61 H26        -3.7410   22.5530   18.8770 H         1 MOL         0.1500 
     62 H27        -1.4940   23.2840   19.5560 H         1 MOL         0.1500 
@<TRIPOS>BOND
     1    1    2 ar   
     2    1    6 ar   
     3    2    3 ar   
     4    2    7 1    
     5    3    4 ar   
     6    4    5 ar   
     7    4   16 1    
     8    5    6 ar   
     9    6   17 1    
    10    7    8 1    
    11    7   14 2    
    12    7   15 2    
    13    8    9 ar   
    14    8   13 ar   
    15    9   10 ar   
    16   10   11 ar   
    17   11   12 ar   
    18   12   13 ar   
    19   16   23 1    
    20   17   18 1    
    21   18   19 1    
    22   18   22 2    
    23   19   20 2    
    24   20   21 1    
    25   20   30 1    
    26   21   22 1    
    27   23   24 1    
    28   23   28 1    
    29   24   25 1    
    30   25   26 1    
    31   26   27 1    
    32   26   29 1    
    33   27   28 1    
    34   30   31 ar   
    35   30   35 ar   
    36   31   32 ar   
    37   32   33 ar   
    38   33   34 ar   
    39   34   35 ar   
    40    1   36 1    
    41    3   37 1    
    42    9   38 1    
    43   10   39 1    
    44   11   40 1    
    45   12   41 1    
    46   13   42 1    
    47   16   43 1    
    48   17   44 1    
    49   19   45 1    
    50   21   46 1    
    51   23   47 1    
    52   24   48 1    
    53   24   49 1    
    54   25   50 1    
    55   25   51 1    
    56   26   52 1    
    57   27   53 1    
    58   27   54 1    
    59   28   55 1    
    60   28   56 1    
    61   29   57 1    
    62   31   58 1    
    63   32   59 1    
    64   33   60 1    
    65   34   61 1    
    66   35   62 1    
@<TRIPOS>SUBSTRUCTURE
     1 MOL         1 PERM              0 ****  ****    0 ROOT 
@<TRIPOS>NORMAL
@<TRIPOS>ALT_TYPE
MMFF94_ALT_TYPE_SET 
MMFF94 23 CR 24 CR 25 CR 26 CR 27 CR 28 CR 20 C5A 19 C5B 18 C5B 1 CB \
2 CB 3 CB 4 CB 6 CB 8 CB 9 CB 10 CB 11 CB 12 CB 13 CB \
30 CB 31 CB 32 CB 33 CB 34 CB 35 CB 36 HC 37 HC 38 HC \
39 HC 40 HC 41 HC 42 HC 45 HC 47 HC 48 HC 49 HC 50 HC \
51 HC 52 HC 53 HC 54 HC 55 HC 56 HC 58 HC 59 HC 60 HC \
61 HC 62 HC 46 HPYL 43 HNCC 44 HNCC 57 HOR 14 O2S 15 O2S \
29 OR 5 NPYD 21 NPYL 22 N5A 16 NC=N 17 NC=N 7 SO2 
