#	Name:			2vkm_ligand
#	Creating user name:	suminyi
#	Creation time:		Sun Sep 30 06:51:10 2018

#	Modifying user name:	suminyi
#	Modification time:	Sun Sep 30 06:51:10 2018

@<TRIPOS>MOLECULE
2vkm_ligand
   90    93     1     1     0
SMALL
MMFF94_CHARGES


@<TRIPOS>ATOM
      1 C11         4.2800   -5.3150   32.9610 C.ar      1 MOL        -0.1500 
      2 C12         5.1240   -4.4910   33.7040 C.ar      1 MOL        -0.1500 
      3 C13         4.6080   -3.7270   34.7480 C.ar      1 MOL        -0.1500 
      4 C14         3.2460   -3.7800   35.0400 C.ar      1 MOL        -0.1500 
      5 C15         2.4080   -4.6240   34.3120 C.ar      1 MOL        -0.1500 
      6 C16         2.9210   -5.4050   33.2700 C.ar      1 MOL        -0.1435 
      7 C17         2.0370   -6.3770   32.4950 C.3       1 MOL         0.4436 
      8 C18         1.3990   -7.4070   33.4290 C.3       1 MOL         0.0000 
      9 N21         0.9760   -5.6920   31.7640 N.am      1 MOL        -0.7301 
     10 C21         1.1230   -5.1670   30.5390 C.2       1 MOL         0.5438 
     11 O21         2.1170   -5.3820   29.8720 O.2       1 MOL        -0.5700 
     12 C23         0.0300   -4.2440   30.0710 C.ar      1 MOL         0.0862 
     13 C24         0.2910   -3.3690   29.0220 C.ar      1 MOL        -0.1500 
     14 C25        -0.6690   -2.4710   28.5520 C.ar      1 MOL         0.1990 
     15 C26        -1.9340   -2.4740   29.1630 C.ar      1 MOL        -0.1500 
     16 C27        -2.2240   -3.3340   30.2320 C.ar      1 MOL         0.0862 
     17 C28        -1.2320   -4.2270   30.6600 C.ar      1 MOL        -0.1500 
     18 N22        -0.3500   -1.5960   27.5290 N.am      1 MOL        -0.6927 
     19 C29        -1.4130   -1.1080   26.6400 C.3       1 MOL         0.3557 
     20 S2          1.1770   -0.8740   27.3260 S.o2      1 MOL         1.3328 
     21 O23         1.0590    0.2530   26.4530 O.2       1 MOL        -0.6500 
     22 O24         1.7800   -0.6710   28.6070 O.2       1 MOL        -0.6500 
     23 C20         2.1520   -1.9550   26.3690 C.3       1 MOL         0.1052 
     24 C22        -3.5820   -3.3130   30.8980 C.2       1 MOL         0.5438 
     25 O22        -4.5430   -2.6940   30.4510 O.2       1 MOL        -0.5700 
     26 N3         -3.6580   -4.0310   32.0360 N.am      1 MOL        -0.7301 
     27 C31        -4.8500   -4.4340   32.7960 C.3       1 MOL         0.3001 
     28 C32        -4.6960   -5.8580   33.4010 C.3       1 MOL         0.1435 
     29 C33        -3.7580   -6.8060   32.6830 C.ar      1 MOL        -0.1435 
     30 C34        -4.0100   -7.2190   31.3810 C.ar      1 MOL        -0.1500 
     31 C35        -3.1630   -8.1380   30.7610 C.ar      1 MOL        -0.1500 
     32 C36        -2.0920   -8.6830   31.4630 C.ar      1 MOL        -0.1500 
     33 C37        -1.8580   -8.2900   32.7780 C.ar      1 MOL        -0.1500 
     34 C38        -2.6690   -7.3300   33.3700 C.ar      1 MOL        -0.1500 
     35 C39        -5.1480   -3.5120   33.9940 C.3       1 MOL         0.2800 
     36 O3         -6.4490   -3.7640   34.5070 O.3       1 MOL        -0.6800 
     37 C30        -4.9670   -2.0320   33.7520 C.3       1 MOL         0.5030 
     38 N4         -5.6910   -1.3560   32.6140 N.4       1 MOL        -0.9060 
     39 C41        -7.0560   -0.8620   33.0160 C.3       1 MOL         0.6465 
     40 C42        -8.2690   -1.4390   32.2990 C.ar      1 MOL        -0.1435 
     41 C43        -9.1980   -2.1640   33.0450 C.ar      1 MOL        -0.1500 
     42 C44       -10.3720   -2.6380   32.4620 C.ar      1 MOL         0.0825 
     43 C45       -10.6140   -2.4010   31.1130 C.ar      1 MOL        -0.1500 
     44 C46        -9.7040   -1.6600   30.3590 C.ar      1 MOL        -0.1500 
     45 C47        -8.5390   -1.1720   30.9550 C.ar      1 MOL        -0.1500 
     46 O4        -11.2950   -3.3550   33.1920 O.3       1 MOL        -0.3625 
     47 C48       -11.8040   -2.8420   34.4480 C.3       1 MOL         0.2800 
     48 H1          4.6830   -5.8900   32.1320 H         1 MOL         0.1500 
     49 H2          6.1830   -4.4490   33.4670 H         1 MOL         0.1500 
     50 H3          5.2670   -3.0910   35.3340 H         1 MOL         0.1500 
     51 H4          2.8320   -3.1800   35.8490 H         1 MOL         0.1500 
     52 H5          1.3530   -4.6780   34.5720 H         1 MOL         0.1500 
     53 H6          2.6530   -6.9260   31.7740 H         1 MOL         0.0000 
     54 H7          0.9670   -8.2050   32.8300 H         1 MOL         0.0000 
     55 H8          0.6150   -6.9550   34.0420 H         1 MOL         0.0000 
     56 H9          2.1400   -7.8440   34.0910 H         1 MOL         0.0000 
     57 H10         0.1750   -5.4040   32.3020 H         1 MOL         0.3700 
     58 H11         1.2830   -3.3950   28.6040 H         1 MOL         0.1500 
     59 H12        -2.7040   -1.7760   28.8550 H         1 MOL         0.1500 
     60 H13        -1.4520   -4.9670   31.4270 H         1 MOL         0.1500 
     61 H14        -2.1680   -1.8850   26.4820 H         1 MOL         0.0000 
     62 H15        -1.0160   -0.8260   25.6600 H         1 MOL         0.0000 
     63 H16        -1.8950   -0.2340   27.0860 H         1 MOL         0.0000 
     64 H17         3.1300   -1.4860   26.2730 H         1 MOL         0.0000 
     65 H18         1.6710   -2.0460   25.3960 H         1 MOL         0.0000 
     66 H19         2.2320   -2.9140   26.8680 H         1 MOL         0.0000 
     67 H20        -2.7830   -4.3700   32.4060 H         1 MOL         0.3700 
     68 H21        -5.7070   -4.4230   32.1260 H         1 MOL         0.0000 
     69 H22        -5.6750   -6.3250   33.4800 H         1 MOL         0.0000 
     70 H23        -4.3430   -5.7830   34.4330 H         1 MOL         0.0000 
     71 H24        -4.8780   -6.8280   30.8610 H         1 MOL         0.1500 
     72 H25        -3.3560   -8.4540   29.7400 H         1 MOL         0.1500 
     73 H26        -1.4540   -9.4260   30.9910 H         1 MOL         0.1500 
     74 H27        -1.0570   -8.7390   33.3540 H         1 MOL         0.1500 
     75 H28        -2.4730   -7.0040   34.3850 H         1 MOL         0.1500 
     76 H29        -4.4140   -3.7220   34.7740 H         1 MOL         0.0000 
     77 H30        -6.2340   -4.1530   35.4470 H         1 MOL         0.4000 
     78 H31        -3.8980   -1.8550   33.5910 H         1 MOL         0.0000 
     79 H32        -5.2230   -1.5040   34.6710 H         1 MOL         0.0000 
     80 H33        -5.6220   -1.9490   31.7550 H         1 MOL         0.4500 
     81 H34        -5.0660   -0.5260   32.5150 H         1 MOL         0.4500 
     82 H35        -7.0500    0.2240   32.8920 H         1 MOL         0.0000 
     83 H36        -7.1450   -1.0630   34.0840 H         1 MOL         0.0000 
     84 H37        -8.9910   -2.3690   34.0910 H         1 MOL         0.1500 
     85 H38       -11.5100   -2.8090   30.6530 H         1 MOL         0.1500 
     86 H39        -9.9060   -1.4740   29.3050 H         1 MOL         0.1500 
     87 H40        -7.8470   -0.5730   30.3720 H         1 MOL         0.1500 
     88 H41       -12.4570   -3.5920   34.9050 H         1 MOL         0.0000 
     89 H42       -12.3780   -1.9310   34.2600 H         1 MOL         0.0000 
     90 H43       -10.9790   -2.6190   35.1280 H         1 MOL         0.0000 
@<TRIPOS>BOND
     1    1    2 ar   
     2    1    6 ar   
     3    2    3 ar   
     4    3    4 ar   
     5    4    5 ar   
     6    5    6 ar   
     7    6    7 1    
     8    7    8 1    
     9    7    9 1    
    10    9   10 am   
    11   10   11 2    
    12   10   12 1    
    13   12   13 ar   
    14   12   17 ar   
    15   13   14 ar   
    16   14   15 ar   
    17   14   18 1    
    18   15   16 ar   
    19   16   17 ar   
    20   16   24 1    
    21   18   19 1    
    22   18   20 am   
    23   20   21 2    
    24   20   22 2    
    25   20   23 1    
    26   24   25 2    
    27   24   26 am   
    28   26   27 1    
    29   27   28 1    
    30   27   35 1    
    31   28   29 1    
    32   29   30 ar   
    33   29   34 ar   
    34   30   31 ar   
    35   31   32 ar   
    36   32   33 ar   
    37   33   34 ar   
    38   35   36 1    
    39   35   37 1    
    40   37   38 1    
    41   38   39 1    
    42   39   40 1    
    43   40   41 ar   
    44   40   45 ar   
    45   41   42 ar   
    46   42   43 ar   
    47   42   46 1    
    48   43   44 ar   
    49   44   45 ar   
    50   46   47 1    
    51    1   48 1    
    52    2   49 1    
    53    3   50 1    
    54    4   51 1    
    55    5   52 1    
    56    7   53 1    
    57    8   54 1    
    58    8   55 1    
    59    8   56 1    
    60    9   57 1    
    61   13   58 1    
    62   15   59 1    
    63   17   60 1    
    64   19   61 1    
    65   19   62 1    
    66   19   63 1    
    67   23   64 1    
    68   23   65 1    
    69   23   66 1    
    70   26   67 1    
    71   27   68 1    
    72   28   69 1    
    73   28   70 1    
    74   30   71 1    
    75   31   72 1    
    76   32   73 1    
    77   33   74 1    
    78   34   75 1    
    79   35   76 1    
    80   36   77 1    
    81   37   78 1    
    82   37   79 1    
    83   38   80 1    
    84   38   81 1    
    85   39   82 1    
    86   39   83 1    
    87   41   84 1    
    88   43   85 1    
    89   44   86 1    
    90   45   87 1    
    91   47   88 1    
    92   47   89 1    
    93   47   90 1    
@<TRIPOS>SUBSTRUCTURE
     1 MOL         1 PERM              0 ****  ****    0 ROOT 
@<TRIPOS>NORMAL
@<TRIPOS>ALT_TYPE
MMFF94_ALT_TYPE_SET 
MMFF94 7 CR 8 CR 19 CR 23 CR 27 CR 28 CR 35 CR 37 CR 39 CR 47 CR 1 CB \
2 CB 3 CB 4 CB 5 CB 6 CB 12 CB 13 CB 14 CB 15 CB 16 CB \
17 CB 29 CB 30 CB 31 CB 32 CB 33 CB 34 CB 40 CB 41 CB \
42 CB 43 CB 44 CB 45 CB 10 C=ON 24 C=ON 48 HC 49 HC 50 HC \
51 HC 52 HC 53 HC 54 HC 55 HC 56 HC 58 HC 59 HC 60 HC \
61 HC 62 HC 63 HC 64 HC 65 HC 66 HC 68 HC 69 HC 70 HC \
71 HC 72 HC 73 HC 74 HC 75 HC 76 HC 78 HC 79 HC 82 HC \
83 HC 84 HC 85 HC 86 HC 87 HC 88 HC 89 HC 90 HC 57 HNCO \
67 HNCO 80 HNR+ 81 HNR+ 77 HOR 11 O=CN 25 O=CN 21 O2S \
22 O2S 46 OC=C 36 OR 38 NR+ 18 NSO2 9 NC=O 26 NC=O 20 SO2N \

