#	Name:			2xbv_ligand
#	Creating user name:	suminyi
#	Creation time:		Sun Sep 30 06:51:04 2018

#	Modifying user name:	suminyi
#	Modification time:	Sun Sep 30 06:51:04 2018

@<TRIPOS>MOLECULE
2xbv_ligand
   58    61     1     1     0
SMALL
MMFF94_CHARGES


@<TRIPOS>ATOM
      1 C1         10.4490   66.8230    4.2370 C.3       1 MOL         0.0610 
      2 C2          9.5570   66.3300    3.0660 C.3       1 MOL         0.0610 
      3 C3          8.7470   67.5550    2.6550 C.3       1 MOL         0.5030 
      4 N4          9.6800   68.7140    2.8840 N.4       1 MOL        -0.9590 
      5 C5         10.3870   68.3450    4.1710 C.3       1 MOL         0.5030 
      6 C6         11.8890   66.3770    4.1460 C.2       1 MOL         0.5690 
      7 C7          8.6320   65.2100    3.4610 C.2       1 MOL         0.5690 
      8 N8          9.0670   64.0080    3.0570 N.am      1 MOL        -0.5470 
      9 O9          7.5890   65.4320    4.0430 O.2       1 MOL        -0.5700 
     10 O10        12.4590   66.3730    3.0760 O.2       1 MOL        -0.5700 
     11 N11        12.4440   66.0900    5.3230 N.am      1 MOL        -0.5470 
     12 C12        13.6060   65.3590    5.6220 C.ar      1 MOL         0.4270 
     13 N13        14.1510   64.5090    4.7380 N.ar      1 MOL        -0.6200 
     14 C14        15.5540   63.6480    6.5060 C.ar      1 MOL         0.1770 
     15 C15        15.0120   64.5540    7.4090 C.ar      1 MOL        -0.1500 
     16 C16        15.1180   63.6720    5.1820 C.ar      1 MOL         0.1600 
     17 C17        14.0220   65.4160    6.9500 C.ar      1 MOL        -0.1500 
     18 Cl1        16.7000   62.4670    7.0410 Cl        1 MOL        -0.1770 
     19 C19         8.4380   62.7310    3.0930 C.ar      1 MOL         0.1170 
     20 C20         7.5780   62.3450    4.1220 C.ar      1 MOL        -0.1500 
     21 C21         7.3400   60.1700    3.0920 C.ar      1 MOL         0.1170 
     22 C22         8.2250   60.5470    2.0890 C.ar      1 MOL        -0.1500 
     23 C23         7.0300   61.0620    4.1170 C.ar      1 MOL        -0.1500 
     24 C24         8.7640   61.8250    2.0830 C.ar      1 MOL         0.1900 
     25 N25         6.7260   58.8840    3.0370 N.am      1 MOL        -0.2860 
     26 C26         7.2170   57.9320    3.9270 C.2       1 MOL        -0.0410 
     27 C27         5.6530   56.3110    2.9910 C.2       1 MOL        -0.1500 
     28 C28         5.2160   57.2920    2.1370 C.2       1 MOL        -0.1356 
     29 C29         6.7040   56.6510    3.9080 C.2       1 MOL        -0.1500 
     30 C30         5.7450   58.6500    2.1260 C.2       1 MOL         0.6156 
     31 O31         5.3540   59.5110    1.3590 O.2       1 MOL        -0.5700 
     32 F32         9.6020   62.1920    1.0940 F         1 MOL        -0.1900 
     33 C33         8.9830   70.0680    2.9870 C.3       1 MOL         0.5030 
     34 C34         9.9370   71.2780    2.9340 C.3       1 MOL         0.6800 
     35 F35        10.9040   71.1420    3.8580 F         1 MOL        -0.3400 
     36 F36        10.5440   71.2370    1.7430 F         1 MOL        -0.3400 
     37 H1         10.0230   66.4830    5.1810 H         1 MOL         0.0000 
     38 H2         10.1690   66.0180    2.2150 H         1 MOL         0.0000 
     39 H3          7.8810   67.6590    3.3180 H         1 MOL         0.0000 
     40 H4          8.4120   67.5060    1.6140 H         1 MOL         0.0000 
     41 H5         10.3920   68.7220    2.1140 H         1 MOL         0.4500 
     42 H6         11.3840   68.7990    4.1940 H         1 MOL         0.0000 
     43 H7          9.8030   68.7260    5.0140 H         1 MOL         0.0000 
     44 H8          9.9530   63.9790    2.5840 H         1 MOL         0.3700 
     45 H9         11.8900   66.2660    6.1480 H         1 MOL         0.3700 
     46 H10        15.3170   64.5670    8.4560 H         1 MOL         0.1500 
     47 H11        15.5080   62.9690    4.4490 H         1 MOL         0.1500 
     48 H12        13.5550   66.0980    7.6580 H         1 MOL         0.1500 
     49 H13         7.3340   63.0350    4.9240 H         1 MOL         0.1500 
     50 H14         8.4820   59.8460    1.3050 H         1 MOL         0.1500 
     51 H15         6.3490   60.7530    4.9040 H         1 MOL         0.1500 
     52 H16         8.0050   58.2770    4.5860 H         1 MOL         0.1500 
     53 H17         5.2340   55.3100    2.9700 H         1 MOL         0.1500 
     54 H18         4.4490   57.1030    1.3960 H         1 MOL         0.1500 
     55 H19         7.0960   55.8890    4.5770 H         1 MOL         0.1500 
     56 H20         8.4080   70.0910    3.9180 H         1 MOL         0.0000 
     57 H21         8.2870   70.1500    2.1470 H         1 MOL         0.0000 
     58 H22         9.4280   72.2470    3.0560 H         1 MOL         0.0000 
@<TRIPOS>BOND
     1    2    1 1    
     2    1    5 1    
     3    1    6 1    
     4    2    3 1    
     5    7    2 1    
     6    3    4 1    
     7    4    5 1    
     8    4   33 1    
     9    6   10 2    
    10    6   11 am   
    11    8    7 am   
    12    7    9 2    
    13   19    8 1    
    14   11   12 1    
    15   12   13 ar   
    16   12   17 ar   
    17   13   16 ar   
    18   15   14 ar   
    19   16   14 ar   
    20   14   18 1    
    21   17   15 ar   
    22   20   19 ar   
    23   24   19 ar   
    24   23   20 ar   
    25   21   22 ar   
    26   21   23 ar   
    27   25   21 1    
    28   22   24 ar   
    29   24   32 1    
    30   26   25 1    
    31   25   30 am   
    32   29   26 2    
    33   27   28 2    
    34   27   29 1    
    35   28   30 1    
    36   30   31 2    
    37   33   34 1    
    38   34   35 1    
    39   34   36 1    
    40    1   37 1    
    41    2   38 1    
    42    3   39 1    
    43    3   40 1    
    44    4   41 1    
    45    5   42 1    
    46    5   43 1    
    47    8   44 1    
    48   11   45 1    
    49   15   46 1    
    50   16   47 1    
    51   17   48 1    
    52   20   49 1    
    53   22   50 1    
    54   23   51 1    
    55   26   52 1    
    56   27   53 1    
    57   28   54 1    
    58   29   55 1    
    59   33   56 1    
    60   33   57 1    
    61   34   58 1    
@<TRIPOS>SUBSTRUCTURE
     1 MOL         1 PERM              0 ****  ****    0 ROOT 
@<TRIPOS>NORMAL
@<TRIPOS>ALT_TYPE
MMFF94_ALT_TYPE_SET 
MMFF94 1 CR 2 CR 3 CR 5 CR 33 CR 34 CR 12 CB 14 CB 15 CB 16 CB 17 CB \
19 CB 20 CB 21 CB 22 CB 23 CB 24 CB 7 C=ON 6 C=ON 30 C=ON \
26 C=C 27 C=C 28 C=C 29 C=C 37 HC 38 HC 39 HC 40 HC \
42 HC 43 HC 46 HC 47 HC 48 HC 49 HC 50 HC 51 HC 52 HC \
53 HC 54 HC 55 HC 56 HC 57 HC 58 HC 44 HNCC 45 HNCC 41 HNR+ \
9 O=CN 10 O=CN 31 O=CN 13 NPYD 4 NR+ 8 NC=O 11 NC=O \
25 NC=O 32 F 35 F 36 F 18 CL 
