#	Name:			4bkt_ligand
#	Creating user name:	suminyi
#	Creation time:		Sun Sep 30 06:51:02 2018

#	Modifying user name:	suminyi
#	Modification time:	Sun Sep 30 06:51:02 2018

@<TRIPOS>MOLECULE
4bkt_ligand
   36    37     1     1     0
SMALL
MMFF94_CHARGES


@<TRIPOS>ATOM
      1 C01        -9.7100   37.0540   -4.8650 C.3       1 MOL         0.1810 
      2 C02        -9.2460   35.7250   -4.3550 C.2       1 MOL         0.1078 
      3 N03        -9.8550   34.5300   -4.4790 N.2       1 MOL        -0.4097 
      4 O04        -9.0430   33.5910   -3.7950 O.3       1 MOL        -0.0191 
      5 C05        -7.9920   34.2970   -3.2850 C.2       1 MOL        -0.0400 
      6 C06        -6.9720   33.6730   -2.3850 C.3       1 MOL         0.2410 
      7 C07        -7.1030   34.2080   -0.9810 C.2       1 MOL         0.5690 
      8 N08        -7.4170   33.3730    0.0380 N.am      1 MOL        -0.6602 
      9 C09        -7.5160   33.8310    1.4440 C.3       1 MOL         0.3611 
     10 C10        -6.3070   34.5700    2.0140 C.2       1 MOL         0.5690 
     11 N11        -6.5710   35.3550    3.0720 N.am      1 MOL        -0.7301 
     12 C12        -5.5550   36.1430    3.7720 C.3       1 MOL         0.3001 
     13 O13        -5.1690   34.4320    1.6200 O.2       1 MOL        -0.5700 
     14 C14        -7.8560   32.5770    2.2740 C.3       1 MOL         0.0000 
     15 C15        -8.5670   31.6720    1.2710 C.3       1 MOL         0.2800 
     16 C17        -7.8480   31.9670   -0.0550 C.3       1 MOL         0.3001 
     17 O18        -6.9850   35.4010   -0.7850 O.2       1 MOL        -0.5700 
     18 C19        -8.0480   35.6060   -3.6130 C.2       1 MOL        -0.1500 
     19 O16        -9.9030   32.1490    1.1560 O.3       1 MOL        -0.6800 
     20 H1         -8.9750   37.8350   -4.6550 H         1 MOL         0.0000 
     21 H2        -10.6480   37.3400   -4.3880 H         1 MOL         0.0000 
     22 H3         -9.8660   37.0180   -5.9440 H         1 MOL         0.0000 
     23 H4         -5.9700   33.9290   -2.7290 H         1 MOL         0.0000 
     24 H5         -7.0390   32.5880   -2.4170 H         1 MOL         0.0000 
     25 H6         -8.3560   34.5280    1.5010 H         1 MOL         0.0000 
     26 H7         -7.5400   35.4190    3.3570 H         1 MOL         0.3700 
     27 H8         -6.0400   36.8330    4.4660 H         1 MOL         0.0000 
     28 H9         -4.9660   36.7100    3.0450 H         1 MOL         0.0000 
     29 H10        -4.8910   35.4700    4.3240 H         1 MOL         0.0000 
     30 H11        -8.4770   32.8160    3.1400 H         1 MOL         0.0000 
     31 H12        -6.9420   32.0910    2.6200 H         1 MOL         0.0000 
     32 H13        -8.5340   30.6110    1.5370 H         1 MOL         0.0000 
     33 H14        -6.9740   31.3180   -0.1590 H         1 MOL         0.0000 
     34 H15        -8.5300   31.8080   -0.8940 H         1 MOL         0.0000 
     35 H16        -7.3860   36.4150   -3.3220 H         1 MOL         0.1500 
     36 H17       -10.4950   31.7490    1.8340 H         1 MOL         0.4000 
@<TRIPOS>BOND
     1    1    2 1    
     2    2    3 2    
     3    2   18 1    
     4    3    4 1    
     5    4    5 1    
     6    5    6 1    
     7    5   18 2    
     8    6    7 1    
     9    7    8 am   
    10    7   17 2    
    11    8    9 1    
    12    8   16 1    
    13    9   10 1    
    14    9   14 1    
    15   10   11 am   
    16   10   13 2    
    17   11   12 1    
    18   14   15 1    
    19   15   16 1    
    20   15   19 1    
    21    1   20 1    
    22    1   21 1    
    23    1   22 1    
    24    6   23 1    
    25    6   24 1    
    26    9   25 1    
    27   11   26 1    
    28   12   27 1    
    29   12   28 1    
    30   12   29 1    
    31   14   30 1    
    32   14   31 1    
    33   15   32 1    
    34   16   33 1    
    35   16   34 1    
    36   18   35 1    
    37   19   36 1    
@<TRIPOS>SUBSTRUCTURE
     1 MOL         1 PERM              0 ****  ****    0 ROOT 
@<TRIPOS>NORMAL
@<TRIPOS>ALT_TYPE
MMFF94_ALT_TYPE_SET 
MMFF94 1 CR 6 CR 9 CR 12 CR 14 CR 15 CR 16 CR 5 C5A 2 C5B 18 C5B 7 C=ON \
10 C=ON 20 HC 21 HC 22 HC 23 HC 24 HC 25 HC 27 HC 28 HC \
29 HC 30 HC 31 HC 32 HC 33 HC 34 HC 35 HC 26 HNCO 36 HOR \
4 OFUR 17 O=CN 13 O=CN 19 OR 3 N5A 8 NC=O 11 NC=O 
