#	Name:			4m0z_ligand
#	Creating user name:	suminyi
#	Creation time:		Sun Sep 30 06:50:55 2018

#	Modifying user name:	suminyi
#	Modification time:	Sun Sep 30 06:50:55 2018

@<TRIPOS>MOLECULE
4m0z_ligand
   39    41     1     1     0
SMALL
MMFF94_CHARGES


@<TRIPOS>ATOM
      1 N1         -5.1740    8.3990   13.5300 N.pl3     1 MOL         0.5926 
      2 N2         -6.2670    7.6670   13.8870 N.2       1 MOL        -0.7068 
      3 C1         -5.7620    6.7210   14.7110 C.2       1 MOL         0.2028 
      4 C2         -4.3500    6.8870   14.7870 C.2       1 MOL         0.0630 
      5 C3         -3.9830    7.9620   14.0410 C.2       1 MOL        -0.3016 
      6 N3         -3.4600    6.0640   15.4640 N.am      1 MOL        -0.4930 
      7 C4         -2.1280    6.1320   15.4840 C.2       1 MOL         0.6900 
      8 N4         -1.5530    5.1780   16.1810 N.am      1 MOL        -0.8000 
      9 O1         -1.4450    6.9640   14.9480 O.2       1 MOL        -0.5700 
     10 C5         -6.5130    5.6640   15.4320 C.2       1 MOL         0.7160 
     11 N5         -7.8160    5.6090   15.1610 N.am      1 MOL        -0.8000 
     12 O2         -6.0500    4.8730   16.2280 O.2       1 MOL        -0.5700 
     13 C6         -5.1850    9.4680   12.6900 C.ar      1 MOL        -0.0230 
     14 C7         -4.4790    9.3600   11.4890 C.ar      1 MOL        -0.1500 
     15 C8         -4.4510   10.4220   10.5900 C.ar      1 MOL        -0.1500 
     16 C9         -5.1320   11.5980   10.8900 C.ar      1 MOL        -0.1500 
     17 C10        -5.8400   10.6690   13.0160 C.ar      1 MOL         0.0000 
     18 C11        -5.7980   11.7330   12.1050 C.ar      1 MOL         0.0000 
     19 C12        -6.4210   12.9420   12.4040 C.ar      1 MOL        -0.1500 
     20 C13        -7.0770   13.1060   13.6190 C.ar      1 MOL        -0.1500 
     21 C14        -7.1510   12.0560   14.5270 C.ar      1 MOL         0.0825 
     22 C15        -6.5410   10.8390   14.2180 C.ar      1 MOL        -0.1500 
     23 O3         -7.8410   12.2640   15.7090 O.3       1 MOL        -0.3625 
     24 C16        -8.1410   11.1900   16.6280 C.3       1 MOL         0.2800 
     25 H          -3.0280    8.4250   13.8190 H         1 MOL         0.1500 
     26 H1         -3.8470    5.2810   15.9750 H         1 MOL         0.3700 
     27 H2         -0.5510    5.2140   16.2940 H         1 MOL         0.3700 
     28 H3         -2.1160    4.4630   16.6160 H         1 MOL         0.3700 
     29 H4         -8.3420    4.8230   15.5180 H         1 MOL         0.3700 
     30 H5         -8.2090    6.2180   14.4540 H         1 MOL         0.3700 
     31 H6         -3.9540    8.4370   11.2510 H         1 MOL         0.1500 
     32 H7         -3.9090   10.3280    9.6530 H         1 MOL         0.1500 
     33 H8         -5.1620   12.4140   10.1740 H         1 MOL         0.1500 
     34 H9         -6.3750   13.7750   11.7030 H         1 MOL         0.1500 
     35 H10        -7.5380   14.0600   13.8560 H         1 MOL         0.1500 
     36 H11        -6.6080   10.0160   14.9140 H         1 MOL         0.1500 
     37 H12        -8.7220   11.5920   17.4600 H         1 MOL         0.0000 
     38 H13        -7.2090   10.7640   17.0070 H         1 MOL         0.0000 
     39 H14        -8.7200   10.4220   16.1080 H         1 MOL         0.0000 
@<TRIPOS>BOND
     1    1    2 1    
     2    1    5 1    
     3    1   13 1    
     4    2    3 2    
     5    3    4 1    
     6    3   10 1    
     7    4    5 2    
     8    4    6 1    
     9    6    7 am   
    10    7    8 am   
    11    7    9 2    
    12   10   11 am   
    13   10   12 2    
    14   13   14 ar   
    15   13   17 ar   
    16   14   15 ar   
    17   15   16 ar   
    18   16   18 ar   
    19   17   18 ar   
    20   17   22 ar   
    21   18   19 ar   
    22   19   20 ar   
    23   20   21 ar   
    24   21   22 ar   
    25   21   23 1    
    26   23   24 1    
    27    5   25 1    
    28    6   26 1    
    29    8   27 1    
    30    8   28 1    
    31   11   29 1    
    32   11   30 1    
    33   14   31 1    
    34   15   32 1    
    35   16   33 1    
    36   19   34 1    
    37   20   35 1    
    38   22   36 1    
    39   24   37 1    
    40   24   38 1    
    41   24   39 1    
@<TRIPOS>SUBSTRUCTURE
     1 MOL         1 PERM              0 ****  ****    0 ROOT 
@<TRIPOS>NORMAL
@<TRIPOS>ALT_TYPE
MMFF94_ALT_TYPE_SET 
MMFF94 24 CR 5 C5A 3 C5B 4 C5B 13 CB 14 CB 15 CB 16 CB 17 CB 18 CB 19 CB \
20 CB 21 CB 22 CB 7 CONN 10 C=ON 25 HC 31 HC 32 HC 33 HC \
34 HC 35 HC 36 HC 37 HC 38 HC 39 HC 26 HNCC 27 HNCO 28 HNCO \
29 HNCO 30 HNCO 9 O=CN 12 O=CN 23 OC=C 1 NPYL 2 N5A \
6 NC=O 8 NC=O 11 NC=O 
