#	Name:			4m0z_ligand
#	Creating user name:	suminyi
#	Creation time:		Sun Sep 30 06:48:43 2018

#	Modifying user name:	suminyi
#	Modification time:	Sun Sep 30 06:48:43 2018

@<TRIPOS>MOLECULE
4m0z_ligand
   39    41     1     1     0
SMALL
MMFF94_CHARGES


@<TRIPOS>ATOM
      1 N1         -5.0220    8.4090   13.4570 N.pl3     1 M0Z         0.5926 
      2 N2         -6.1250    7.7550   13.8680 N.2       1 M0Z        -0.7068 
      3 C1         -5.6690    6.7870   14.7270 C.2       1 M0Z         0.2028 
      4 C2         -4.2390    6.8540   14.8370 C.2       1 M0Z         0.0630 
      5 C3         -3.8370    7.9000   13.9990 C.2       1 M0Z        -0.3016 
      6 N3         -3.4710    6.0150   15.6350 N.am      1 M0Z        -0.4930 
      7 C4         -2.0750    6.1640   15.7150 C.2       1 M0Z         0.6900 
      8 N4         -1.4230    5.3190   16.6040 N.am      1 M0Z        -0.8000 
      9 O1         -1.4390    6.9880   15.0480 O.2       1 M0Z        -0.5700 
     10 C5         -6.5460    5.8330   15.4100 C.2       1 M0Z         0.7160 
     11 N5         -7.8650    5.7950   15.0340 N.am      1 M0Z        -0.8000 
     12 O2         -6.1220    5.0730   16.2890 O.2       1 M0Z        -0.5700 
     13 C6         -5.0590    9.4900   12.5140 C.ar      1 M0Z        -0.0230 
     14 C7         -4.3940    9.3150   11.3240 C.ar      1 M0Z        -0.1500 
     15 C8         -4.4060   10.3480   10.3650 C.ar      1 M0Z        -0.1500 
     16 C9         -5.0860   11.5090   10.6150 C.ar      1 M0Z        -0.1500 
     17 C10        -5.7410   10.6980   12.8320 C.ar      1 M0Z         0.0000 
     18 C11        -5.7400   11.7080   11.8550 C.ar      1 M0Z         0.0000 
     19 C12        -6.4030   12.9370   12.1190 C.ar      1 M0Z        -0.1500 
     20 C13        -7.0370   13.1430   13.3030 C.ar      1 M0Z        -0.1500 
     21 C14        -7.0270   12.1070   14.2810 C.ar      1 M0Z         0.0825 
     22 C15        -6.3960   10.9090   14.0710 C.ar      1 M0Z        -0.1500 
     23 O3         -7.6780   12.4760   15.4180 O.3       1 M0Z        -0.3625 
     24 C16        -7.9950   11.4610   16.3350 C.3       1 M0Z         0.2800 
     25 H          -2.8211    8.2436   13.8096 H         1 M0Z         0.1500 
     26 H          -3.9189    5.2925   16.1617 H         1 M0Z         0.3700 
     27 H          -0.4300    5.3735   16.7088 H         1 M0Z         0.3700 
     28 H          -1.9466    4.6561   17.1392 H         1 M0Z         0.3700 
     29 H          -8.4934    5.1564   15.4782 H         1 M0Z         0.3700 
     30 H          -8.1980    6.4059   14.3157 H         1 M0Z         0.3700 
     31 H          -3.8647    8.3903   11.1246 H         1 M0Z         0.1500 
     32 H          -3.8757   10.2226    9.4279 H         1 M0Z         0.1500 
     33 H          -5.1243   12.2831    9.8571 H         1 M0Z         0.1500 
     34 H          -6.4029   13.7185   11.3677 H         1 M0Z         0.1500 
     35 H          -7.5427   14.0813   13.5005 H         1 M0Z         0.1500 
     36 H          -6.3977   10.1401   14.8351 H         1 M0Z         0.1500 
     37 H          -8.5151   11.8979   17.2002 H         1 M0Z         0.0000 
     38 H          -7.0704   10.9700   16.6727 H         1 M0Z         0.0000 
     39 H          -8.6479   10.7200   15.8506 H         1 M0Z         0.0000 
@<TRIPOS>BOND
     1    1    2 1    
     2    1    5 1    
     3    1   13 1    
     4    2    3 2    
     5    3    4 1    
     6    3   10 1    
     7    4    5 2    
     8    4    6 1    
     9    6    7 am   
    10    7    8 am   
    11    7    9 2    
    12   10   11 am   
    13   10   12 2    
    14   13   14 ar   
    15   13   17 ar   
    16   14   15 ar   
    17   15   16 ar   
    18   16   18 ar   
    19   17   18 ar   
    20   17   22 ar   
    21   18   19 ar   
    22   19   20 ar   
    23   20   21 ar   
    24   21   22 ar   
    25   21   23 1    
    26   23   24 1    
    27    5   25 1    
    28    6   26 1    
    29    8   27 1    
    30    8   28 1    
    31   11   29 1    
    32   11   30 1    
    33   14   31 1    
    34   15   32 1    
    35   16   33 1    
    36   19   34 1    
    37   20   35 1    
    38   22   36 1    
    39   24   37 1    
    40   24   38 1    
    41   24   39 1    
@<TRIPOS>SUBSTRUCTURE
     1 M0Z         1 PERM              0 ****  ****    0 ROOT 
@<TRIPOS>NORMAL
@<TRIPOS>ALT_TYPE
MMFF94_ALT_TYPE_SET 
MMFF94 24 CR 5 C5A 3 C5B 4 C5B 13 CB 14 CB 15 CB 16 CB 17 CB 18 CB 19 CB \
20 CB 21 CB 22 CB 7 CONN 10 C=ON 25 HC 31 HC 32 HC 33 HC \
34 HC 35 HC 36 HC 37 HC 38 HC 39 HC 26 HNCC 27 HNCO 28 HNCO \
29 HNCO 30 HNCO 9 O=CN 12 O=CN 23 OC=C 1 NPYL 2 N5A \
6 NC=O 8 NC=O 11 NC=O 
