#	Name:			3gr2_ligand
#	Creating user name:	suminyi
#	Creation time:		Sun Sep 30 06:51:02 2018

#	Modifying user name:	suminyi
#	Modification time:	Sun Sep 30 06:51:02 2018

@<TRIPOS>MOLECULE
3gr2_ligand
   24    25     1     1     0
SMALL
MMFF94_CHARGES


@<TRIPOS>ATOM
      1 O11       -36.4190    6.0750    9.7330 O.2       1 MOL        -0.5700 
      2 C3        -37.0430    6.0840   10.7640 C.2       1 MOL         0.5690 
      3 C4        -36.6920    6.8670   11.9990 C.3       1 MOL         0.1220 
      4 C12       -35.1900    6.8250   12.3810 C.3       1 MOL         0.0000 
      5 C13       -34.6640    5.4110   12.6910 C.3       1 MOL         0.0000 
      6 C5        -37.6950    6.2530   12.9440 C.2       1 MOL         0.3280 
      7 C14       -37.6690    6.5830   14.4150 C.3       1 MOL         0.0610 
      8 N1        -38.5900    5.5370   12.3530 N.2       1 MOL        -0.5120 
      9 N2        -38.1970    5.4460   11.0260 N.am      1 MOL        -0.0620 
     10 C6        -39.0370    4.7950   10.1350 C.2       1 MOL         0.2505 
     11 N10       -40.3010    4.4050   10.4390 N.pl3     1 MOL         0.2996 
     12 N9        -40.9050    3.8410    9.3760 N.2       1 MOL        -0.4180 
     13 N8        -39.9970    3.9090    8.4210 N.2       1 MOL         0.0000 
     14 N7        -38.8300    4.5100    8.8570 N.2       1 MOL        -0.3381 
     15 H1        -36.9790    7.8980   11.7960 H         1 MOL         0.0000 
     16 H2        -35.0120    7.4810   13.2360 H         1 MOL         0.0000 
     17 H3        -34.6130    7.2330   11.5450 H         1 MOL         0.0000 
     18 H4        -33.5870    5.4470   12.8670 H         1 MOL         0.0000 
     19 H5        -34.8450    4.7430   11.8460 H         1 MOL         0.0000 
     20 H6        -35.1450    4.9910   13.5750 H         1 MOL         0.0000 
     21 H7        -38.5870    6.2440   14.8980 H         1 MOL         0.0000 
     22 H8        -37.5740    7.6590   14.5680 H         1 MOL         0.0000 
     23 H9        -36.8300    6.0830   14.8990 H         1 MOL         0.0000 
     24 H10       -40.7690    4.5740   11.3040 H         1 MOL         0.2700 
@<TRIPOS>BOND
     1    1    2 2    
     2    2    3 1    
     3    2    9 am   
     4    3    4 1    
     5    3    6 1    
     6    4    5 1    
     7    6    7 1    
     8    6    8 2    
     9    8    9 1    
    10    9   10 1    
    11   10   11 1    
    12   10   14 2    
    13   11   12 1    
    14   12   13 2    
    15   13   14 1    
    16    3   15 1    
    17    4   16 1    
    18    4   17 1    
    19    5   18 1    
    20    5   19 1    
    21    5   20 1    
    22    7   21 1    
    23    7   22 1    
    24    7   23 1    
    25   11   24 1    
@<TRIPOS>SUBSTRUCTURE
     1 MOL         1 PERM              0 ****  ****    0 ROOT 
@<TRIPOS>NORMAL
@<TRIPOS>ALT_TYPE
MMFF94_ALT_TYPE_SET 
MMFF94 3 CR 4 CR 5 CR 7 CR 10 C5A 2 C=ON 6 C=N 15 HC 16 HC 17 HC 18 HC \
19 HC 20 HC 21 HC 22 HC 23 HC 24 HPYL 1 O=CN 11 NPYL \
12 N5A 13 N5B 14 N5B 8 N=C 9 NC=O 
