#	Name:			4w9l_ligand
#	Creating user name:	suminyi
#	Creation time:		Sun Sep 30 06:51:02 2018

#	Modifying user name:	suminyi
#	Modification time:	Sun Sep 30 06:51:02 2018

@<TRIPOS>MOLECULE
4w9l_ligand
   84    86     1     1     0
SMALL
MMFF94_CHARGES


@<TRIPOS>ATOM
      1 CAD        11.1770   53.7830   98.2490 C.3       1 MOL         0.0610 
      2 CAA        11.0080   55.2830   98.3290 C.2       1 MOL         0.5690 
      3 OAC        10.9630   55.8660   99.3940 O.2       1 MOL        -0.5700 
      4 N          10.9250   56.0000   97.1970 N.am      1 MOL        -0.7301 
      5 CA         10.3710   55.5460   95.8930 C.3       1 MOL         0.3611 
      6 CB          9.1590   56.4320   95.4530 C.3       1 MOL         0.0000 
      7 CG1         9.6270   57.8340   94.9930 C.3       1 MOL         0.0000 
      8 CBO         8.1510   56.6090   96.6200 C.3       1 MOL         0.0000 
      9 CG2         8.3940   55.7450   94.2960 C.3       1 MOL         0.0000 
     10 C          11.4360   55.3960   94.7980 C.2       1 MOL         0.5690 
     11 O          12.3480   56.1770   94.6310 O.2       1 MOL        -0.5700 
     12 NAH        11.3140   54.3030   94.0280 N.am      1 MOL        -0.7301 
     13 CAI        12.3110   53.8210   93.0390 C.3       1 MOL         0.3611 
     14 CAJ        12.6210   52.3050   93.3080 C.3       1 MOL         0.0000 
     15 CAL        13.6480   51.7350   92.3000 C.3       1 MOL         0.0000 
     16 CAM        11.3370   51.4370   93.2090 C.3       1 MOL         0.0000 
     17 CAK        13.2270   52.1480   94.7280 C.3       1 MOL         0.0000 
     18 CAO        11.8250   54.0880   91.6060 C.2       1 MOL         0.5690 
     19 OAP        10.6330   54.0840   91.3560 O.2       1 MOL        -0.5700 
     20 NAQ        12.7260   54.3650   90.6260 N.am      1 MOL        -0.6602 
     21 CAU        14.1250   54.8000   90.7950 C.3       1 MOL         0.3001 
     22 CAT        14.4840   55.5430   89.5000 C.3       1 MOL         0.2800 
     23 OAX        13.9590   56.8590   89.5890 O.3       1 MOL        -0.6800 
     24 CAS        13.6500   54.8350   88.4420 C.3       1 MOL         0.0000 
     25 CAR        12.3530   54.4750   89.1980 C.3       1 MOL         0.3611 
     26 CAV        11.6970   53.2640   88.5520 C.2       1 MOL         0.5690 
     27 OAW        11.7950   52.1200   88.9510 O.2       1 MOL        -0.5700 
     28 NAY        11.0910   53.5550   87.3900 N.am      1 MOL        -0.7301 
     29 CAZ        10.5880   52.5640   86.4380 C.3       1 MOL         0.4436 
     30 CBA        11.5360   52.2890   85.2730 C.ar      1 MOL        -0.1435 
     31 CBF        12.5620   53.1620   84.8970 C.ar      1 MOL        -0.1500 
     32 CBE        13.3620   52.8770   83.7870 C.ar      1 MOL        -0.1500 
     33 CBB        11.3620   51.1140   84.5460 C.ar      1 MOL        -0.1500 
     34 CBC        12.1480   50.8420   83.4290 C.ar      1 MOL        -0.1500 
     35 CBD        13.1280   51.7440   82.9980 C.ar      1 MOL         0.0530 
     36 CBG        13.9290   51.5240   81.7980 C.2       1 MOL        -0.0130 
     37 SBK        15.5150   52.1740   81.5610 S.3       1 MOL        -0.0800 
     38 CBJ        15.5400   51.4060   80.0060 C.2       1 MOL         0.2281 
     39 NBI        14.3890   50.8260   79.6220 N.2       1 MOL        -0.5653 
     40 CBH        13.4750   50.8810   80.6580 C.2       1 MOL         0.0462 
     41 CBL        12.0850   50.3640   80.4170 C.3       1 MOL         0.1810 
     42 H          10.4650   53.3120   97.5760 H         1 MOL         0.0000 
     43 H1         11.0400   53.3460   99.2390 H         1 MOL         0.0000 
     44 H2         12.1870   53.5500   97.9080 H         1 MOL         0.0000 
     45 H3         11.0670   56.9950   97.3110 H         1 MOL         0.3700 
     46 H4          9.9620   54.5440   96.0210 H         1 MOL         0.0000 
     47 H5          8.7650   58.4470   94.7190 H         1 MOL         0.0000 
     48 H6         10.2750   57.7730   94.1150 H         1 MOL         0.0000 
     49 H7         10.1810   58.3470   95.7820 H         1 MOL         0.0000 
     50 H8          7.8070   55.6380   96.9850 H         1 MOL         0.0000 
     51 H9          7.2760   57.1760   96.2900 H         1 MOL         0.0000 
     52 H10         8.5950   57.1500   97.4570 H         1 MOL         0.0000 
     53 H11         9.0310   55.6130   93.4200 H         1 MOL         0.0000 
     54 H12         7.5310   56.3440   93.9930 H         1 MOL         0.0000 
     55 H13         8.0250   54.7610   94.5950 H         1 MOL         0.0000 
     56 H14        10.4560   53.7790   94.0700 H         1 MOL         0.3700 
     57 H15        13.2330   54.3890   93.1700 H         1 MOL         0.0000 
     58 H16        13.8890   50.6970   92.5370 H         1 MOL         0.0000 
     59 H17        14.5760   52.3050   92.3280 H         1 MOL         0.0000 
     60 H18        13.2540   51.7510   91.2810 H         1 MOL         0.0000 
     61 H19        10.5840   51.7410   93.9380 H         1 MOL         0.0000 
     62 H20        11.5680   50.3850   93.3930 H         1 MOL         0.0000 
     63 H21        10.8930   51.5060   92.2120 H         1 MOL         0.0000 
     64 H22        14.1190   52.7680   94.8360 H         1 MOL         0.0000 
     65 H23        13.5120   51.1100   94.9170 H         1 MOL         0.0000 
     66 H24        12.5160   52.4420   95.5020 H         1 MOL         0.0000 
     67 H25        14.7800   53.9350   90.9020 H         1 MOL         0.0000 
     68 H26        14.2460   55.4700   91.6500 H         1 MOL         0.0000 
     69 H27        15.5580   55.5410   89.2900 H         1 MOL         0.0000 
     70 H28        14.5690   57.5220   89.1940 H         1 MOL         0.4000 
     71 H29        14.1660   53.9330   88.1080 H         1 MOL         0.0000 
     72 H30        13.4540   55.4650   87.5720 H         1 MOL         0.0000 
     73 H31        11.6430   55.3010   89.1030 H         1 MOL         0.0000 
     74 H32        11.0550   54.5340   87.1340 H         1 MOL         0.3700 
     75 H33         9.6340   52.9280   86.0470 H         1 MOL         0.0000 
     76 H34        10.3810   51.6310   86.9740 H         1 MOL         0.0000 
     77 H35        12.7410   54.0740   85.4630 H         1 MOL         0.1500 
     78 H36        14.1430   53.5840   83.5140 H         1 MOL         0.1500 
     79 H37        10.6020   50.3980   84.8540 H         1 MOL         0.1500 
     80 H38        12.0000   49.8920   82.9320 H         1 MOL         0.1500 
     81 H39        16.4190   51.4680   79.3820 H         1 MOL         0.1500 
     82 H40        11.8710   50.3280   79.3480 H         1 MOL         0.0000 
     83 H41        11.3310   51.0090   80.8730 H         1 MOL         0.0000 
     84 H42        11.9740   49.3490   80.8020 H         1 MOL         0.0000 
@<TRIPOS>BOND
     1    1    2 1    
     2    2    3 2    
     3    2    4 am   
     4    4    5 1    
     5    5    6 1    
     6    5   10 1    
     7    6    7 1    
     8    6    8 1    
     9    6    9 1    
    10   10   11 2    
    11   10   12 am   
    12   12   13 1    
    13   13   14 1    
    14   13   18 1    
    15   14   15 1    
    16   14   16 1    
    17   14   17 1    
    18   18   19 2    
    19   18   20 am   
    20   20   21 1    
    21   20   25 1    
    22   21   22 1    
    23   22   23 1    
    24   22   24 1    
    25   24   25 1    
    26   25   26 1    
    27   26   27 2    
    28   26   28 am   
    29   28   29 1    
    30   29   30 1    
    31   30   31 ar   
    32   30   33 ar   
    33   31   32 ar   
    34   32   35 ar   
    35   33   34 ar   
    36   34   35 ar   
    37   35   36 1    
    38   36   37 1    
    39   36   40 2    
    40   37   38 1    
    41   38   39 2    
    42   39   40 1    
    43   40   41 1    
    44    1   42 1    
    45    1   43 1    
    46    1   44 1    
    47    4   45 1    
    48    5   46 1    
    49    7   47 1    
    50    7   48 1    
    51    7   49 1    
    52    8   50 1    
    53    8   51 1    
    54    8   52 1    
    55    9   53 1    
    56    9   54 1    
    57    9   55 1    
    58   12   56 1    
    59   13   57 1    
    60   15   58 1    
    61   15   59 1    
    62   15   60 1    
    63   16   61 1    
    64   16   62 1    
    65   16   63 1    
    66   17   64 1    
    67   17   65 1    
    68   17   66 1    
    69   21   67 1    
    70   21   68 1    
    71   22   69 1    
    72   23   70 1    
    73   24   71 1    
    74   24   72 1    
    75   25   73 1    
    76   28   74 1    
    77   29   75 1    
    78   29   76 1    
    79   31   77 1    
    80   32   78 1    
    81   33   79 1    
    82   34   80 1    
    83   38   81 1    
    84   41   82 1    
    85   41   83 1    
    86   41   84 1    
@<TRIPOS>SUBSTRUCTURE
     1 MOL         1 PERM              0 ****  ****    0 ROOT 
@<TRIPOS>NORMAL
@<TRIPOS>ALT_TYPE
MMFF94_ALT_TYPE_SET 
MMFF94 1 CR 5 CR 6 CR 7 CR 8 CR 9 CR 13 CR 14 CR 15 CR 16 CR 17 CR 21 CR \
22 CR 24 CR 25 CR 29 CR 41 CR 36 C5A 38 C5A 40 C5B 30 CB \
31 CB 32 CB 33 CB 34 CB 35 CB 2 C=ON 10 C=ON 18 C=ON \
26 C=ON 42 HC 43 HC 44 HC 46 HC 47 HC 48 HC 49 HC 50 HC \
51 HC 52 HC 53 HC 54 HC 55 HC 57 HC 58 HC 59 HC 60 HC \
61 HC 62 HC 63 HC 64 HC 65 HC 66 HC 67 HC 68 HC 69 HC \
71 HC 72 HC 73 HC 75 HC 76 HC 77 HC 78 HC 79 HC 80 HC \
81 HC 82 HC 83 HC 84 HC 45 HNCO 56 HNCO 74 HNCO 70 HOR \
3 O=CN 11 O=CN 19 O=CN 27 O=CN 23 OR 39 N5B 4 NC=O 12 NC=O \
20 NC=O 28 NC=O 37 STHI 
