#	Name:			3n7a_ligand
#	Creating user name:	suminyi
#	Creation time:		Sun Sep 30 06:50:58 2018

#	Modifying user name:	suminyi
#	Modification time:	Sun Sep 30 06:50:58 2018

@<TRIPOS>MOLECULE
3n7a_ligand
   21    21     1     1     0
SMALL
MMFF94_CHARGES


@<TRIPOS>ATOM
      1 C2         44.2010    7.2990   26.8070 C.3       1 MOL         0.0000 
      2 C3         43.1820    7.5540   25.6720 C.3       1 MOL         0.2800 
      3 O3         42.6730    8.8870   25.6290 O.3       1 MOL        -0.6800 
      4 C4         43.8280    7.3040   24.2980 C.3       1 MOL         0.4182 
      5 O4         42.7980    7.3620   23.3050 O.3       1 MOL        -0.6800 
      6 C5         44.5530    5.9830   24.2710 C.2       1 MOL        -0.2882 
      7 C6         44.9320    5.3450   25.3760 C.2       1 MOL        -0.2882 
      8 C          45.8220    5.4980   27.7430 C.2       1 MOL         0.9060 
      9 O1         46.5010    6.4060   28.1850 O.co2     1 MOL        -0.9000 
     10 O30        43.4250    5.0740   27.1730 O.3       1 MOL        -0.6800 
     11 O2         46.1630    4.3400   27.9310 O.co2     1 MOL        -0.9000 
     12 C1         44.6190    5.7980   26.7960 C.3       1 MOL         0.3122 
     13 H1         43.7590    7.5400   27.7770 H         1 MOL         0.0000 
     14 H2         45.0770    7.9350   26.6680 H         1 MOL         0.0000 
     15 H3         42.3400    6.8660   25.7980 H         1 MOL         0.0000 
     16 H4         42.1140    8.7730   24.8240 H         1 MOL         0.4000 
     17 H5         44.5530    8.0980   24.1020 H         1 MOL         0.0000 
     18 H6         43.1940    7.7840   22.4720 H         1 MOL         0.4000 
     19 H7         44.8040    5.5810   23.2930 H         1 MOL         0.1500 
     20 H8         45.4770    4.4170   25.3020 H         1 MOL         0.1500 
     21 H9         43.6570    4.1620   27.5150 H         1 MOL         0.4000 
@<TRIPOS>BOND
     1    1    2 1    
     2   12    1 1    
     3    2    3 1    
     4    2    4 1    
     5    4    5 1    
     6    6    4 1    
     7    7    6 2    
     8   12    7 1    
     9    8    9 ar   
    10    8   11 ar   
    11    8   12 1    
    12   12   10 1    
    13    1   13 1    
    14    1   14 1    
    15    2   15 1    
    16    3   16 1    
    17    4   17 1    
    18    5   18 1    
    19    6   19 1    
    20    7   20 1    
    21   10   21 1    
@<TRIPOS>SUBSTRUCTURE
     1 MOL         1 PERM              0 ****  ****    0 ROOT 
@<TRIPOS>NORMAL
@<TRIPOS>ALT_TYPE
MMFF94_ALT_TYPE_SET 
MMFF94 1 CR 2 CR 4 CR 12 CR 8 CO2M 6 C=C 7 C=C 13 HC 14 HC 15 HC 17 HC \
19 HC 20 HC 16 HOR 18 HOR 21 HOR 9 O2CM 11 O2CM 3 OR \
5 OR 10 OR 
