#	Name:			3n7a_ligand
#	Creating user name:	suminyi
#	Creation time:		Sun Sep 30 06:48:40 2018

#	Modifying user name:	suminyi
#	Modification time:	Sun Sep 30 06:48:40 2018

@<TRIPOS>MOLECULE
3n7a_ligand
   21    21     1     1     0
SMALL
MMFF94_CHARGES


@<TRIPOS>ATOM
      1 C2         44.1930    7.4980   26.9400 C.3       1 FA1         0.0000 
      2 C3         43.1350    7.7950   25.8900 C.3       1 FA1         0.2800 
      3 O3         42.6860    9.1730   26.0020 O.3       1 FA1        -0.6800 
      4 C4         43.7180    7.5280   24.5000 C.3       1 FA1         0.4182 
      5 O4         42.6520    7.6230   23.5870 O.3       1 FA1        -0.6800 
      6 C5         44.3450    6.1470   24.4450 C.2       1 FA1        -0.2882 
      7 C6         44.7570    5.4970   25.6020 C.2       1 FA1        -0.2882 
      8 C          45.9970    5.7860   27.5490 C.2       1 FA1         0.9060 
      9 O1         46.4530    6.8120   28.4250 O.co2     1 FA1        -0.9000 
     10 O30        43.6030    5.1380   27.5580 O.3       1 FA1        -0.6800 
     11 O2         46.1060    4.4790   28.0570 O.co2     1 FA1        -0.9000 
     12 C1         44.6090    6.0040   26.9170 C.3       1 FA1         0.3122 
     13 H1         43.7894    7.7419   27.9338 H         1 FA1         0.0000 
     14 H2         45.0788    8.1192   26.7414 H         1 FA1         0.0000 
     15 H3         42.2742    7.1291   26.0501 H         1 FA1         0.0000 
     16 H4         42.0259    9.3445   25.3407 H         1 FA1         0.4000 
     17 H5         44.4829    8.2821   24.2628 H         1 FA1         0.0000 
     18 H6         42.2736    8.4932   23.6331 H         1 FA1         0.4000 
     19 H7         44.4744    5.6566   23.4813 H         1 FA1         0.1500 
     20 H8         45.2302    4.5227   25.4895 H         1 FA1         0.1500 
     21 H9         43.9162    4.2411   27.5634 H         1 FA1         0.4000 
@<TRIPOS>BOND
     1    1    2 1    
     2   12    1 1    
     3    2    3 1    
     4    2    4 1    
     5    4    5 1    
     6    6    4 1    
     7    7    6 2    
     8   12    7 1    
     9    8    9 ar   
    10    8   11 ar   
    11    8   12 1    
    12   12   10 1    
    13    1   13 1    
    14    1   14 1    
    15    2   15 1    
    16    3   16 1    
    17    4   17 1    
    18    5   18 1    
    19    6   19 1    
    20    7   20 1    
    21   10   21 1    
@<TRIPOS>SUBSTRUCTURE
     1 FA1         1 PERM              0 ****  ****    0 ROOT 
@<TRIPOS>NORMAL
@<TRIPOS>ALT_TYPE
MMFF94_ALT_TYPE_SET 
MMFF94 1 CR 2 CR 4 CR 12 CR 8 CO2M 6 C=C 7 C=C 13 HC 14 HC 15 HC 17 HC \
19 HC 20 HC 16 HOR 18 HOR 21 HOR 9 O2CM 11 O2CM 3 OR \
5 OR 10 OR 
