#	Name:			3kgp_ligand
#	Creating user name:	suminyi
#	Creation time:		Sun Sep 30 06:50:59 2018

#	Modifying user name:	suminyi
#	Modification time:	Sun Sep 30 06:50:59 2018

@<TRIPOS>MOLECULE
3kgp_ligand
   20    20     1     1     0
SMALL
MMFF94_CHARGES


@<TRIPOS>ATOM
      1 C         -27.0340   86.4090  -12.0510 C.2       1 MOL         0.9790 
      2 O         -26.3170   85.9850  -11.1650 O.co2     1 MOL        -0.9000 
      3 C1        -28.3020   87.1340  -11.6760 C.ar      1 MOL        -0.1790 
      4 N1        -32.0550   90.6180  -11.3420 N.4       1 MOL        -0.8530 
      5 C2        -28.6690   87.3180  -10.3370 C.ar      1 MOL        -0.1500 
      6 C3        -29.8340   88.0170  -10.0100 C.ar      1 MOL        -0.1500 
      7 C4        -30.6630   88.5290  -11.0110 C.ar      1 MOL        -0.1435 
      8 C5        -30.3140   88.3120  -12.3400 C.ar      1 MOL        -0.1500 
      9 C6        -29.1400   87.6430  -12.6720 C.ar      1 MOL        -0.1500 
     10 C7        -31.9440   89.2700  -10.6660 C.3       1 MOL         0.6465 
     11 OXT       -26.7380   86.3610  -13.2310 O.co2     1 MOL        -0.9000 
     12 H1        -32.8450   91.2330  -11.0310 H         1 MOL         0.4500 
     13 H2        -32.0980   90.5480  -12.3680 H         1 MOL         0.4500 
     14 H3        -31.2130   91.1900  -11.1270 H         1 MOL         0.4500 
     15 H4        -28.0330   86.9170   -9.5460 H         1 MOL         0.1500 
     16 H5        -30.0910   88.1520   -8.9640 H         1 MOL         0.1500 
     17 H6        -30.9660   88.6610  -13.1270 H         1 MOL         0.1500 
     18 H7        -28.8760   87.5040  -13.7190 H         1 MOL         0.1500 
     19 H8        -32.8060   88.6650  -10.9570 H         1 MOL         0.0000 
     20 H9        -31.9880   89.4270   -9.5860 H         1 MOL         0.0000 
@<TRIPOS>BOND
     1    1    2 ar   
     2    3    1 1    
     3    1   11 ar   
     4    5    3 ar   
     5    3    9 ar   
     6   10    4 1    
     7    6    5 ar   
     8    7    6 ar   
     9    7    8 ar   
    10    7   10 1    
    11    8    9 ar   
    12    4   12 1    
    13    4   13 1    
    14    4   14 1    
    15    5   15 1    
    16    6   16 1    
    17    8   17 1    
    18    9   18 1    
    19   10   19 1    
    20   10   20 1    
@<TRIPOS>SUBSTRUCTURE
     1 MOL         1 PERM              0 ****  ****    0 ROOT 
@<TRIPOS>NORMAL
@<TRIPOS>ALT_TYPE
MMFF94_ALT_TYPE_SET 
MMFF94 10 CR 3 CB 5 CB 6 CB 7 CB 8 CB 9 CB 1 CO2M 15 HC 16 HC 17 HC \
18 HC 19 HC 20 HC 12 HNR+ 13 HNR+ 14 HNR+ 2 O2CM 11 O2CM \
4 NR+
