#	Name:			2j78_ligand
#	Creating user name:	suminyi
#	Creation time:		Sun Sep 30 06:51:16 2018

#	Modifying user name:	suminyi
#	Modification time:	Sun Sep 30 06:51:16 2018

@<TRIPOS>MOLECULE
2j78_ligand
   25    25     1     1     0
SMALL
MMFF94_CHARGES


@<TRIPOS>ATOM
      1 C1          0.0500   11.4330   10.2570 C.2       1 MOL         0.4390 
      2 N1          0.2920   11.5120   11.5120 N.2       1 MOL        -0.5130 
      3 C2          1.0830   12.0590    9.3140 C.3       1 MOL         0.3410 
      4 N5         -0.9810   10.7250    9.7430 N.pl3     1 MOL        -0.8191 
      5 O7         -0.3890   10.8260   12.5190 O.3       1 MOL        -0.3370 
      6 O2          1.6660   13.2870    9.8320 O.3       1 MOL        -0.6800 
      7 C3          0.5270   12.3300    7.9000 C.3       1 MOL         0.2800 
      8 O3          1.6600   12.5520    7.0530 O.3       1 MOL        -0.6800 
      9 C4         -0.3200   11.1200    7.4120 C.3       1 MOL         0.2800 
     10 O4         -0.7560   11.3100    6.0470 O.3       1 MOL        -0.6800 
     11 C5         -1.5110   11.0100    8.4020 C.3       1 MOL         0.3691 
     12 C6         -2.5870    9.9830    7.9810 C.3       1 MOL         0.2800 
     13 O6         -2.1620    8.6280    8.1650 O.3       1 MOL        -0.6800 
     14 H1          1.8870   11.3260    9.2190 H         1 MOL         0.0000 
     15 H2         -1.6480   10.5720   10.4880 H         1 MOL         0.4000 
     16 H3          0.1970   11.1800   13.2680 H         1 MOL         0.4000 
     17 H4          0.9070   13.8500   10.1850 H         1 MOL         0.4000 
     18 H5         -0.1000   13.2270    7.9350 H         1 MOL         0.0000 
     19 H6          1.3750   13.0130    6.2110 H         1 MOL         0.4000 
     20 H7          0.2780   10.2060    7.4750 H         1 MOL         0.0000 
     21 H8         -1.0800   10.4040    5.6730 H         1 MOL         0.4000 
     22 H9         -1.9970   11.9900    8.4310 H         1 MOL         0.0000 
     23 H10        -2.8850   10.1460    6.9430 H         1 MOL         0.0000 
     24 H11        -3.4650   10.1490    8.6090 H         1 MOL         0.0000 
     25 H12        -1.5810    8.3170    7.3850 H         1 MOL         0.4000 
@<TRIPOS>BOND
     1    1    2 2    
     2    1    3 1    
     3    1    4 1    
     4    2    5 1    
     5    3    6 1    
     6    3    7 1    
     7    4   11 1    
     8    7    8 1    
     9    7    9 1    
    10    9   10 1    
    11    9   11 1    
    12   11   12 1    
    13   12   13 1    
    14    3   14 1    
    15    4   15 1    
    16    5   16 1    
    17    6   17 1    
    18    7   18 1    
    19    8   19 1    
    20    9   20 1    
    21   10   21 1    
    22   11   22 1    
    23   12   23 1    
    24   12   24 1    
    25   13   25 1    
@<TRIPOS>SUBSTRUCTURE
     1 MOL         1 PERM              0 ****  ****    0 ROOT 
@<TRIPOS>NORMAL
@<TRIPOS>ALT_TYPE
MMFF94_ALT_TYPE_SET 
MMFF94 3 CR 7 CR 9 CR 11 CR 12 CR 1 C=N 14 HC 18 HC 20 HC 22 HC 23 HC \
24 HC 15 HNCN 17 HOR 19 HOR 21 HOR 25 HOR 16 HO 6 OR \
8 OR 10 OR 13 OR 5 -O- 2 N=C 4 NC=N 
