#	Name:			2j78_ligand
#	Creating user name:	suminyi
#	Creation time:		Sun Sep 30 06:48:38 2018

#	Modifying user name:	suminyi
#	Modification time:	Sun Sep 30 06:48:39 2018

@<TRIPOS>MOLECULE
2j78_ligand
   25    25     1     1     0
SMALL
MMFF94_CHARGES


@<TRIPOS>ATOM
      1 C1          0.1250   11.4600   10.3170 C.2       1 GOX         0.4390 
      2 N1          0.5030   11.3590   11.5760 N.2       1 GOX        -0.5130 
      3 C2          1.1740   12.1210    9.4020 C.3       1 GOX         0.3410 
      4 N5         -1.1350   10.9800    9.9070 N.pl3     1 GOX        -0.8191 
      5 O7         -0.3610   10.7420   12.4840 O.3       1 GOX        -0.3370 
      6 O2          1.6700   13.3100    9.9680 O.3       1 GOX        -0.6800 
      7 C3          0.5390   12.4040    8.0430 C.3       1 GOX         0.2800 
      8 O3          1.6100   12.6700    7.1400 O.3       1 GOX        -0.6800 
      9 C4         -0.2660   11.1900    7.5690 C.3       1 GOX         0.2800 
     10 O4         -0.6380   11.3320    6.2030 O.3       1 GOX        -0.6800 
     11 C5         -1.5140   11.1240    8.4950 C.3       1 GOX         0.3691 
     12 C6         -2.4280    9.9260    8.1640 C.3       1 GOX         0.2800 
     13 O6         -1.7790    8.6990    8.4330 O.3       1 GOX        -0.6800 
     14 H1          2.0135   11.4235    9.2653 H         1 GOX         0.0000 
     15 H2         -1.7755   10.5383   10.5819 H         1 GOX         0.4000 
     16 H3          0.0371   10.7394   13.3466 H         1 GOX         0.4000 
     17 H4          2.0771   13.1156   10.8040 H         1 GOX         0.4000 
     18 H5         -0.1249   13.2784    8.1105 H         1 GOX         0.0000 
     19 H6          1.2572   12.8523    6.2770 H         1 GOX         0.4000 
     20 H7          0.3324   10.2739    7.6817 H         1 GOX         0.0000 
     21 H8          0.1442   11.4087    5.6693 H         1 GOX         0.4000 
     22 H9         -2.0832   12.0564    8.3664 H         1 GOX         0.0000 
     23 H10        -2.6971    9.9635    7.0981 H         1 GOX         0.0000 
     24 H11        -3.3403    9.9910    8.7751 H         1 GOX         0.0000 
     25 H12        -2.3627    7.9801    8.2209 H         1 GOX         0.4000 
@<TRIPOS>BOND
     1    1    2 2    
     2    1    3 1    
     3    1    4 1    
     4    2    5 1    
     5    3    6 1    
     6    3    7 1    
     7    4   11 1    
     8    7    8 1    
     9    7    9 1    
    10    9   10 1    
    11    9   11 1    
    12   11   12 1    
    13   12   13 1    
    14    3   14 1    
    15    4   15 1    
    16    5   16 1    
    17    6   17 1    
    18    7   18 1    
    19    8   19 1    
    20    9   20 1    
    21   10   21 1    
    22   11   22 1    
    23   12   23 1    
    24   12   24 1    
    25   13   25 1    
@<TRIPOS>SUBSTRUCTURE
     1 GOX         1 PERM              0 ****  ****    0 ROOT 
@<TRIPOS>NORMAL
@<TRIPOS>ALT_TYPE
MMFF94_ALT_TYPE_SET 
MMFF94 3 CR 7 CR 9 CR 11 CR 12 CR 1 C=N 14 HC 18 HC 20 HC 22 HC 23 HC \
24 HC 15 HNCN 17 HOR 19 HOR 21 HOR 25 HOR 16 HO 6 OR \
8 OR 10 OR 13 OR 5 -O- 2 N=C 4 NC=N 
