#	Name:			3u9q_ligand
#	Creating user name:	suminyi
#	Creation time:		Sun Sep 30 06:51:02 2018

#	Modifying user name:	suminyi
#	Modification time:	Sun Sep 30 06:51:02 2018

@<TRIPOS>MOLECULE
3u9q_ligand
   31    30     1     1     0
SMALL
MMFF94_CHARGES


@<TRIPOS>ATOM
      1 C1          3.6160    3.7620   20.4820 C.2       1 MOL         0.9060 
      2 O1          2.5970    3.8320   19.8280 O.co2     1 MOL        -0.9000 
      3 C2          3.5080    3.0700   21.8170 C.3       1 MOL        -0.1060 
      4 C3          2.4190    1.9710   21.7790 C.3       1 MOL         0.0000 
      5 C4          2.5940    0.9870   22.9320 C.3       1 MOL         0.0000 
      6 C5          1.5330   -0.1290   22.9030 C.3       1 MOL         0.0000 
      7 C6          1.9550   -1.2320   23.8840 C.3       1 MOL         0.0000 
      8 C7          0.8670   -2.2900   24.1020 C.3       1 MOL         0.0000 
      9 C8          1.3670   -3.4090   25.0440 C.3       1 MOL         0.0000 
     10 C9          0.3040   -3.8540   26.0650 C.3       1 MOL         0.0000 
     11 C10         0.1600   -2.8290   27.2040 C.3       1 MOL         0.0000 
     12 O2          4.7360    3.9500   20.0390 O.co2     1 MOL        -0.9000 
     13 H1          3.2700    3.8060   22.5860 H         1 MOL         0.0000 
     14 H2          4.4780    2.6320   22.0640 H         1 MOL         0.0000 
     15 H3          2.5110    1.4160   20.8420 H         1 MOL         0.0000 
     16 H4          1.4240    2.4250   21.8060 H         1 MOL         0.0000 
     17 H5          2.5670    1.5140   23.8900 H         1 MOL         0.0000 
     18 H6          3.5800    0.5440   22.8180 H         1 MOL         0.0000 
     19 H7          1.4550   -0.5520   21.8990 H         1 MOL         0.0000 
     20 H8          0.5550    0.2770   23.1690 H         1 MOL         0.0000 
     21 H9          2.2120   -0.7820   24.8450 H         1 MOL         0.0000 
     22 H10         2.8450   -1.7160   23.4810 H         1 MOL         0.0000 
     23 H11         0.6190   -2.7390   23.1420 H         1 MOL         0.0000 
     24 H12        -0.0350   -1.8120   24.4920 H         1 MOL         0.0000 
     25 H13         2.2560   -3.0860   25.5870 H         1 MOL         0.0000 
     26 H14         1.6680   -4.2670   24.4400 H         1 MOL         0.0000 
     27 H15         0.6080   -4.8120   26.4910 H         1 MOL         0.0000 
     28 H16        -0.6570   -4.0070   25.5700 H         1 MOL         0.0000 
     29 H17        -0.5070   -3.2040   27.9800 H         1 MOL         0.0000 
     30 H18        -0.2330   -1.8850   26.8300 H         1 MOL         0.0000 
     31 H19         1.1240   -2.6370   27.6690 H         1 MOL         0.0000 
@<TRIPOS>BOND
     1    1    2 ar   
     2    1    3 1    
     3    1   12 ar   
     4    3    4 1    
     5    4    5 1    
     6    5    6 1    
     7    6    7 1    
     8    7    8 1    
     9    8    9 1    
    10    9   10 1    
    11   10   11 1    
    12    3   13 1    
    13    3   14 1    
    14    4   15 1    
    15    4   16 1    
    16    5   17 1    
    17    5   18 1    
    18    6   19 1    
    19    6   20 1    
    20    7   21 1    
    21    7   22 1    
    22    8   23 1    
    23    8   24 1    
    24    9   25 1    
    25    9   26 1    
    26   10   27 1    
    27   10   28 1    
    28   11   29 1    
    29   11   30 1    
    30   11   31 1    
@<TRIPOS>SUBSTRUCTURE
     1 MOL         1 PERM              0 ****  ****    0 ROOT 
@<TRIPOS>NORMAL
@<TRIPOS>ALT_TYPE
MMFF94_ALT_TYPE_SET 
MMFF94 3 CR 4 CR 5 CR 6 CR 7 CR 8 CR 9 CR 10 CR 11 CR 1 CO2M 13 HC 14 HC \
15 HC 16 HC 17 HC 18 HC 19 HC 20 HC 21 HC 22 HC 23 HC \
24 HC 25 HC 26 HC 27 HC 28 HC 29 HC 30 HC 31 HC 2 O2CM \
12 O2CM 
