#	Name:			3u9q_ligand
#	Creating user name:	suminyi
#	Creation time:		Sun Sep 30 06:48:43 2018

#	Modifying user name:	suminyi
#	Modification time:	Sun Sep 30 06:48:43 2018

@<TRIPOS>MOLECULE
3u9q_ligand
   31    30     1     1     0
SMALL
MMFF94_CHARGES


@<TRIPOS>ATOM
      1 C1          3.5090    3.8460   20.2220 C.2       1 DKA         0.9060 
      2 O1          2.5500    4.0310   19.4740 O.co2     1 DKA        -0.9000 
      3 C2          3.3640    3.1980   21.5910 C.3       1 DKA        -0.1060 
      4 C3          2.5490    1.8960   21.5000 C.3       1 DKA         0.0000 
      5 C4          2.8540    0.8800   22.5970 C.3       1 DKA         0.0000 
      6 C5          1.7040   -0.0950   22.7900 C.3       1 DKA         0.0000 
      7 C6          1.8960   -0.9800   24.0220 C.3       1 DKA         0.0000 
      8 C7          0.9460   -2.1600   24.0050 C.3       1 DKA         0.0000 
      9 C8          1.3000   -3.2130   25.0520 C.3       1 DKA         0.0000 
     10 C9          0.1070   -3.4990   25.9530 C.3       1 DKA         0.0000 
     11 C10         0.2580   -2.8530   27.3100 C.3       1 DKA         0.0000 
     12 O2          4.6950    4.2400   19.7470 O.co2     1 DKA        -0.9000 
     13 H1          2.8509    3.8972   22.2677 H         1 DKA         0.0000 
     14 H2          4.3638    2.9697   21.9889 H         1 DKA         0.0000 
     15 H3          2.7600    1.4259   20.5282 H         1 DKA         0.0000 
     16 H4          1.4814    2.1543   21.5583 H         1 DKA         0.0000 
     17 H5          3.0303    1.4159   23.5413 H         1 DKA         0.0000 
     18 H6          3.7575    0.3166   22.3210 H         1 DKA         0.0000 
     19 H7          1.6317   -0.7377   21.9003 H         1 DKA         0.0000 
     20 H8          0.7712    0.4763   22.9065 H         1 DKA         0.0000 
     21 H9          1.7083   -0.3818   24.9258 H         1 DKA         0.0000 
     22 H10         2.9307   -1.3531   24.0376 H         1 DKA         0.0000 
     23 H11         0.9817   -2.6269   23.0096 H         1 DKA         0.0000 
     24 H12        -0.0727   -1.7952   24.2026 H         1 DKA         0.0000 
     25 H13         2.1357   -2.8454   25.6655 H         1 DKA         0.0000 
     26 H14         1.5990   -4.1414   24.5435 H         1 DKA         0.0000 
     27 H15         0.0142   -4.5870   26.0855 H         1 DKA         0.0000 
     28 H16        -0.8027   -3.1092   25.4729 H         1 DKA         0.0000 
     29 H17        -0.6231   -3.0846   27.9264 H         1 DKA         0.0000 
     30 H18         0.3450   -1.7631   27.1896 H         1 DKA         0.0000 
     31 H19         1.1620   -3.2409   27.8022 H         1 DKA         0.0000 
@<TRIPOS>BOND
     1    1    2 ar   
     2    1    3 1    
     3    1   12 ar   
     4    3    4 1    
     5    4    5 1    
     6    5    6 1    
     7    6    7 1    
     8    7    8 1    
     9    8    9 1    
    10    9   10 1    
    11   10   11 1    
    12    3   13 1    
    13    3   14 1    
    14    4   15 1    
    15    4   16 1    
    16    5   17 1    
    17    5   18 1    
    18    6   19 1    
    19    6   20 1    
    20    7   21 1    
    21    7   22 1    
    22    8   23 1    
    23    8   24 1    
    24    9   25 1    
    25    9   26 1    
    26   10   27 1    
    27   10   28 1    
    28   11   29 1    
    29   11   30 1    
    30   11   31 1    
@<TRIPOS>SUBSTRUCTURE
     1 DKA         1 PERM              0 ****  ****    0 ROOT 
@<TRIPOS>NORMAL
@<TRIPOS>ALT_TYPE
MMFF94_ALT_TYPE_SET 
MMFF94 3 CR 4 CR 5 CR 6 CR 7 CR 8 CR 9 CR 10 CR 11 CR 1 CO2M 13 HC 14 HC \
15 HC 16 HC 17 HC 18 HC 19 HC 20 HC 21 HC 22 HC 23 HC \
24 HC 25 HC 26 HC 27 HC 28 HC 29 HC 30 HC 31 HC 2 O2CM \
12 O2CM 
