#	Name:			1w4o_ligand
#	Creating user name:	suminyi
#	Creation time:		Sun Sep 30 06:51:07 2018

#	Modifying user name:	suminyi
#	Modification time:	Sun Sep 30 06:51:07 2018

@<TRIPOS>MOLECULE
1w4o_ligand
   32    33     1     1     0
SMALL
MMFF94_CHARGES


@<TRIPOS>ATOM
      1 N1         36.6790   -2.1130   11.9440 N.am      1 MOL        -0.4691 
      2 C2         35.4920   -2.3670   11.3520 C.2       1 MOL         0.6900 
      3 O2         34.9380   -1.5830   10.6180 O.2       1 MOL        -0.5700 
      4 N3         34.9240   -3.5370   11.6020 N.am      1 MOL        -0.4900 
      5 C4         35.3730   -4.4900   12.4010 C.2       1 MOL         0.6156 
      6 O4         34.7440   -5.4980   12.6210 O.2       1 MOL        -0.5700 
      7 C5         36.6660   -4.1970   12.9980 C.2       1 MOL        -0.1356 
      8 C6         37.3250   -3.0120   12.7810 C.2       1 MOL        -0.0410 
      9 O5         40.3870   -0.2600   14.0390 O.3       1 MOL        -0.6800 
     10 C9         40.5330    0.4650   12.8160 C.3       1 MOL         0.2800 
     11 C8         39.1980    0.5200   12.0510 C.3       1 MOL         0.2800 
     12 O7         38.7110   -0.8130   11.7540 O.3       1 MOL        -0.5600 
     13 C3         38.0710    1.2590   12.8130 C.3       1 MOL         0.2800 
     14 O3         37.6400    2.3330   11.9680 O.3       1 MOL        -0.5512 
     15 C7         36.9380    0.2290   12.9120 C.3       1 MOL         0.2800 
     16 O6         36.9660   -0.3890   14.2130 O.3       1 MOL        -0.6800 
     17 C1         37.2620   -0.7700   11.7740 C.3       1 MOL         0.5801 
     18 O3P        35.8640    3.9600   12.5130 O.co2     1 MOL        -1.0333 
     19 P          37.3250    3.7780   12.5400 P.3       1 MOL         1.3712 
     20 O1P        37.8550    4.6910   11.5080 O.co2     1 MOL        -1.0333 
     21 O2P        38.0250    4.0860   13.7830 O.co2     1 MOL        -1.0333 
     22 H1         34.0570   -3.6910   11.1270 H         1 MOL         0.3700 
     23 H2         37.0370   -4.9630   13.6580 H         1 MOL         0.1500 
     24 H3         38.2630   -2.6760   13.2190 H         1 MOL         0.1500 
     25 H4         39.4760   -0.0720   14.3720 H         1 MOL         0.4000 
     26 H5         41.2890   -0.0180   12.1900 H         1 MOL         0.0000 
     27 H6         40.8600    1.4870   13.0280 H         1 MOL         0.0000 
     28 H7         39.3720    1.0220   11.1000 H         1 MOL         0.0000 
     29 H8         38.3860    1.6300   13.7940 H         1 MOL         0.0000 
     30 H9         35.9640    0.7000   12.7450 H         1 MOL         0.0000 
     31 H10        36.0060   -0.3400   14.5600 H         1 MOL         0.4000 
     32 H11        36.9370   -0.3650   10.8010 H         1 MOL         0.0000 
@<TRIPOS>BOND
     1    1    2 am   
     2    1    8 1    
     3   17    1 1    
     4    2    3 2    
     5    2    4 am   
     6    4    5 am   
     7    5    6 2    
     8    7    5 1    
     9    8    7 2    
    10   10    9 1    
    11   11   10 1    
    12   12   11 1    
    13   11   13 1    
    14   12   17 1    
    15   13   14 1    
    16   13   15 1    
    17   14   19 1    
    18   15   16 1    
    19   15   17 1    
    20   19   18 ar   
    21   19   20 ar   
    22   19   21 ar   
    23    4   22 1    
    24    7   23 1    
    25    8   24 1    
    26    9   25 1    
    27   10   26 1    
    28   10   27 1    
    29   11   28 1    
    30   13   29 1    
    31   15   30 1    
    32   16   31 1    
    33   17   32 1    
@<TRIPOS>SUBSTRUCTURE
     1 MOL         1 PERM              0 ****  ****    0 ROOT 
@<TRIPOS>NORMAL
@<TRIPOS>ALT_TYPE
MMFF94_ALT_TYPE_SET 
MMFF94 10 CR 11 CR 13 CR 15 CR 17 CR 2 CONN 5 C=ON 7 C=C 8 C=C 23 HC \
24 HC 26 HC 27 HC 28 HC 29 HC 30 HC 32 HC 22 HNCO 25 HOR \
31 HOR 3 O=CN 6 O=CN 18 O3P 20 O3P 21 O3P 14 OPO3 9 OR \
12 OR 16 OR 1 NC=O 4 NC=O 19 PO4 
