#	Name:			3n86_ligand
#	Creating user name:	suminyi
#	Creation time:		Sun Sep 30 06:51:14 2018

#	Modifying user name:	suminyi
#	Modification time:	Sun Sep 30 06:51:14 2018

@<TRIPOS>MOLECULE
3n86_ligand
   41    42     1     1     0
SMALL
MMFF94_CHARGES


@<TRIPOS>ATOM
      1 OAA        28.2890   27.1310   -3.5640 O.2       1 MOL        -0.5700 
      2 OAB        31.5580   25.3870    2.8800 O.co2     1 MOL        -0.9000 
      3 OAC        29.7870   24.7140    3.7700 O.co2     1 MOL        -0.9000 
      4 OAD        27.7250   21.0930    0.7370 O.3       1 MOL        -0.6800 
      5 OAE        28.1640   22.3020   -1.6760 O.3       1 MOL        -0.6800 
      6 OAF        31.4870   22.9060    1.2490 O.3       1 MOL        -0.6800 
      7 CAG        29.5010   26.5240   -1.6240 C.3       1 MOL         0.0610 
      8 CAH        28.9200   25.1050   -1.7470 C.3       1 MOL         0.1382 
      9 CAI        30.0840   24.5450    0.4170 C.2       1 MOL        -0.2882 
     10 CAJ        27.2430   32.3000   -3.6650 C.ar      1 MOL        -0.1500 
     11 CAK        26.8280   31.0870   -4.2000 C.ar      1 MOL        -0.1500 
     12 CAL        28.1290   32.3300   -2.5910 C.ar      1 MOL        -0.1500 
     13 CAM        27.3060   29.8990   -3.6720 C.ar      1 MOL        -0.1500 
     14 CAN        28.6390   31.1380   -2.0880 C.ar      1 MOL        -0.1500 
     15 CAO        29.1880   22.7080    1.9140 C.3       1 MOL         0.0000 
     16 NAP        28.7880   28.7470   -2.0650 N.am      1 MOL        -0.5470 
     17 CAQ        28.7990   27.4890   -2.5270 C.2       1 MOL         0.5690 
     18 CAR        30.6110   24.6230    2.8830 C.2       1 MOL         0.9060 
     19 CAS        29.2130   24.2300   -0.5470 C.2       1 MOL        -0.2764 
     20 CAT        28.2390   29.9230   -2.6360 C.ar      1 MOL         0.1170 
     21 CAU        28.8090   22.0050    0.6010 C.3       1 MOL         0.2800 
     22 CAV        28.3150   23.0160   -0.4410 C.3       1 MOL         0.4182 
     23 CAW        30.3510   23.7070    1.6480 C.3       1 MOL         0.3122 
     24 H1         27.6570   20.8600   -0.2210 H         1 MOL         0.4000 
     25 H2         27.5300   22.8320   -2.2640 H         1 MOL         0.4000 
     26 H3         32.3450   23.3470    1.4980 H         1 MOL         0.4000 
     27 H4         30.5600   26.5090   -1.8820 H         1 MOL         0.0000 
     28 H5         29.3900   26.8840   -0.6000 H         1 MOL         0.0000 
     29 H6         29.2820   24.6310   -2.6630 H         1 MOL         0.0000 
     30 H7         27.8350   25.1800   -1.8560 H         1 MOL         0.0000 
     31 H8         30.7200   25.4220    0.3510 H         1 MOL         0.1500 
     32 H9         26.8530   33.2130   -4.0910 H         1 MOL         0.1500 
     33 H10        26.1140   31.0620   -5.0200 H         1 MOL         0.1500 
     34 H11        28.4230   33.2760   -2.1470 H         1 MOL         0.1500 
     35 H12        26.9280   28.9710   -4.0890 H         1 MOL         0.1500 
     36 H13        29.3470   31.1620   -1.2670 H         1 MOL         0.1500 
     37 H14        29.5080   21.9750    2.6570 H         1 MOL         0.0000 
     38 H15        28.3170   23.2310    2.3140 H         1 MOL         0.0000 
     39 H16        29.2100   28.8890   -1.1690 H         1 MOL         0.3700 
     40 H17        29.6850   21.4770    0.2070 H         1 MOL         0.0000 
     41 H18        27.3280   23.3660   -0.1260 H         1 MOL         0.0000 
@<TRIPOS>BOND
     1   17    1 2    
     2   18    2 ar   
     3   18    3 ar   
     4   21    4 1    
     5   22    5 1    
     6   23    6 1    
     7    8    7 1    
     8    7   17 1    
     9   19    8 1    
    10   19    9 2    
    11    9   23 1    
    12   11   10 ar   
    13   12   10 ar   
    14   13   11 ar   
    15   14   12 ar   
    16   20   13 ar   
    17   20   14 ar   
    18   15   21 1    
    19   23   15 1    
    20   17   16 am   
    21   16   20 1    
    22   23   18 1    
    23   19   22 1    
    24   21   22 1    
    25    4   24 1    
    26    5   25 1    
    27    6   26 1    
    28    7   27 1    
    29    7   28 1    
    30    8   29 1    
    31    8   30 1    
    32    9   31 1    
    33   10   32 1    
    34   11   33 1    
    35   12   34 1    
    36   13   35 1    
    37   14   36 1    
    38   15   37 1    
    39   15   38 1    
    40   16   39 1    
    41   21   40 1    
    42   22   41 1    
@<TRIPOS>SUBSTRUCTURE
     1 MOL         1 PERM              0 ****  ****    0 ROOT 
@<TRIPOS>NORMAL
@<TRIPOS>ALT_TYPE
MMFF94_ALT_TYPE_SET 
MMFF94 7 CR 8 CR 15 CR 21 CR 22 CR 23 CR 10 CB 11 CB 12 CB 13 CB 14 CB \
20 CB 18 CO2M 17 C=ON 9 C=C 19 C=C 27 HC 28 HC 29 HC \
30 HC 31 HC 32 HC 33 HC 34 HC 35 HC 36 HC 37 HC 38 HC \
40 HC 41 HC 39 HNCC 24 HOR 25 HOR 26 HOR 2 O2CM 3 O2CM \
1 O=CN 4 OR 5 OR 6 OR 16 NC=O 
