#	Name:			3k5v_ligand
#	Creating user name:	suminyi
#	Creation time:		Sun Sep 30 06:51:10 2018

#	Modifying user name:	suminyi
#	Modification time:	Sun Sep 30 06:51:10 2018

@<TRIPOS>MOLECULE
3k5v_ligand
   40    42     1     1     0
SMALL
MMFF94_CHARGES


@<TRIPOS>ATOM
      1 F1         16.5310   38.3430   49.0460 F         1 MOL        -0.3400 
      2 C2         17.1600   38.9060   50.0900 C.3       1 MOL         1.3000 
      3 F3         16.4660   38.6180   51.2020 F         1 MOL        -0.3400 
      4 F4         18.3640   38.3260   50.2040 F         1 MOL        -0.3400 
      5 O5         17.2710   40.3280   49.9080 O.3       1 MOL        -0.3625 
      6 C6         17.8970   41.0970   50.8560 C.ar      1 MOL         0.0825 
      7 C7         19.2540   41.3600   50.7260 C.ar      1 MOL        -0.1500 
      8 C9         19.8750   42.2200   51.6220 C.ar      1 MOL        -0.1500 
      9 C11        19.1630   42.7890   52.6810 C.ar      1 MOL         0.1000 
     10 C12        17.8130   42.4870   52.8230 C.ar      1 MOL        -0.1500 
     11 C14        17.1750   41.6510   51.9100 C.ar      1 MOL        -0.1500 
     12 N16        19.7120   43.6520   53.5910 N.pl3     1 MOL        -0.6000 
     13 C18        20.9760   43.9430   53.9810 C.ar      1 MOL         0.4100 
     14 N19        21.9990   43.3400   53.3720 N.ar      1 MOL        -0.6200 
     15 C20        23.2090   43.6190   53.8590 C.ar      1 MOL         0.4700 
     16 N22        23.4710   44.4570   54.8620 N.ar      1 MOL        -0.6200 
     17 C23        22.4400   45.0770   55.4480 C.ar      1 MOL         0.3100 
     18 C24        21.1410   44.8200   55.0250 C.ar      1 MOL        -0.1500 
     19 C26        22.7780   45.9870   56.5980 C.ar      1 MOL         0.0000 
     20 C27        24.0910   46.4780   56.7590 C.ar      1 MOL        -0.1500 
     21 C29        24.4240   47.3430   57.8060 C.ar      1 MOL         0.0862 
     22 C30        23.4230   47.7340   58.7040 C.ar      1 MOL        -0.1500 
     23 C32        22.1330   47.2340   58.5780 C.ar      1 MOL        -0.1500 
     24 C34        21.8040   46.3680   57.5410 C.ar      1 MOL        -0.1500 
     25 C36        25.8460   47.8190   57.9230 C.2       1 MOL         0.5438 
     26 O37        26.7640   47.4290   57.2380 O.2       1 MOL        -0.5700 
     27 N38        26.1300   48.7130   58.8630 N.am      1 MOL        -0.8000 
     28 H1         19.8210   40.9190   49.9080 H         1 MOL         0.1500 
     29 H2         20.9160   42.4520   51.4650 H         1 MOL         0.1500 
     30 H3         17.2550   42.9090   53.6540 H         1 MOL         0.1500 
     31 H4         16.1190   41.4350   52.0240 H         1 MOL         0.1500 
     32 H5         19.0520   44.1190   54.1910 H         1 MOL         0.4000 
     33 H6         24.0540   43.1200   53.3940 H         1 MOL         0.1500 
     34 H7         20.2820   45.2820   55.4960 H         1 MOL         0.1500 
     35 H8         24.8660   46.2110   56.0420 H         1 MOL         0.1500 
     36 H9         23.6210   48.4250   59.5210 H         1 MOL         0.1500 
     37 H10        21.3690   47.5410   59.2920 H         1 MOL         0.1500 
     38 H11        20.7800   46.0050   57.4860 H         1 MOL         0.1500 
     39 H12        27.0570   49.0910   58.8580 H         1 MOL         0.3700 
     40 H13        25.3910   49.1250   59.4020 H         1 MOL         0.3700 
@<TRIPOS>BOND
     1    1    2 1    
     2    2    3 1    
     3    2    4 1    
     4    2    5 1    
     5    5    6 1    
     6    6    7 ar   
     7    6   11 ar   
     8    7    8 ar   
     9    8    9 ar   
    10    9   10 ar   
    11    9   12 1    
    12   10   11 ar   
    13   12   13 1    
    14   13   14 ar   
    15   13   18 ar   
    16   14   15 ar   
    17   15   16 ar   
    18   16   17 ar   
    19   17   18 ar   
    20   17   19 1    
    21   19   20 ar   
    22   19   24 ar   
    23   20   21 ar   
    24   21   22 ar   
    25   21   25 1    
    26   22   23 ar   
    27   23   24 ar   
    28   25   26 2    
    29   25   27 am   
    30    7   28 1    
    31    8   29 1    
    32   10   30 1    
    33   11   31 1    
    34   12   32 1    
    35   15   33 1    
    36   18   34 1    
    37   20   35 1    
    38   22   36 1    
    39   23   37 1    
    40   24   38 1    
    41   27   39 1    
    42   27   40 1    
@<TRIPOS>SUBSTRUCTURE
     1 MOL         1 PERM              0 ****  ****    0 ROOT 
@<TRIPOS>NORMAL
@<TRIPOS>ALT_TYPE
MMFF94_ALT_TYPE_SET 
MMFF94 2 CR 6 CB 7 CB 8 CB 9 CB 10 CB 11 CB 13 CB 15 CB 17 CB 18 CB \
19 CB 20 CB 21 CB 22 CB 23 CB 24 CB 25 C=ON 28 HC 29 HC \
30 HC 31 HC 33 HC 34 HC 35 HC 36 HC 37 HC 38 HC 32 HNCC \
39 HNCO 40 HNCO 26 O=CN 5 OC=C 14 NPYD 16 NPYD 27 NC=O \
12 NC=N 1 F 3 F 4 F
