#	Name:			3ozt_ligand
#	Creating user name:	suminyi
#	Creation time:		Sun Sep 30 06:50:57 2018

#	Modifying user name:	suminyi
#	Modification time:	Sun Sep 30 06:50:57 2018

@<TRIPOS>MOLECULE
3ozt_ligand
   50    52     1     1     0
SMALL
MMFF94_CHARGES


@<TRIPOS>ATOM
      1 C1         36.8460   -2.1760  -13.5730 C.3       1 MOL         0.2800 
      2 C2         36.7950   -0.6500  -13.6880 C.3       1 MOL         0.2800 
      3 C3         35.2670   -0.4340  -13.5930 C.3       1 MOL         0.6491 
      4 O4         34.8580   -1.3310  -12.5470 O.3       1 MOL        -0.5600 
      5 C5         35.7960   -2.4310  -12.4690 C.3       1 MOL         0.4182 
      6 C6         36.4200   -2.3160  -11.1010 C.2       1 MOL        -0.2882 
      7 N7         34.7290    0.8980  -13.3210 N.pl3     1 MOL        -0.5691 
      8 O8         36.4700   -2.8130  -14.8140 O.3       1 MOL        -0.6800 
      9 O9         37.4660   -0.1850  -14.8720 O.3       1 MOL        -0.6800 
     10 C10        35.9000   -2.8780  -10.0260 C.2       1 MOL        -0.2882 
     11 C11        36.5420   -2.7870   -8.6740 C.3       1 MOL         0.4383 
     12 N12        36.1740   -3.9800   -7.9430 N.am      1 MOL        -0.7301 
     13 C13        36.9280   -4.5530   -7.0080 C.2       1 MOL         0.5438 
     14 C14        36.5480   -5.9230   -6.5280 C.ar      1 MOL         0.0862 
     15 C15        35.3670   -6.6090   -6.8860 C.ar      1 MOL         0.0825 
     16 C16        35.1220   -7.8800   -6.3530 C.ar      1 MOL         0.0825 
     17 C17        36.0770   -8.4860   -5.5320 C.ar      1 MOL        -0.1500 
     18 C18        37.2560   -7.8190   -5.1790 C.ar      1 MOL         0.1330 
     19 C19        37.4640   -6.5350   -5.6690 C.ar      1 MOL        -0.1500 
     20 N20        38.2900   -8.4460   -4.3120 N.2       1 MOL         0.9070 
     21 O21        34.4530   -6.0380   -7.7310 O.3       1 MOL        -0.5325 
     22 O22        33.9550   -8.5590   -6.5980 O.3       1 MOL        -0.5325 
     23 O23        37.8740   -3.9400   -6.5540 O.2       1 MOL        -0.5700 
     24 O24        37.9610   -9.3350   -3.5530 O.2       1 MOL        -0.5200 
     25 O25        39.4110   -7.9580   -4.3060 O.3       1 MOL        -0.5200 
     26 C26        35.2970    1.7170  -12.3480 C.2       1 MOL        -0.0500 
     27 C27        34.8230    2.9980  -12.2450 C.2       1 MOL        -0.1356 
     28 C28        33.7540    3.5240  -13.0460 C.2       1 MOL         0.5412 
     29 C29        33.5770    1.2660  -14.0160 C.2       1 MOL        -0.0500 
     30 C30        33.1500    2.5610  -13.9230 C.2       1 MOL        -0.1356 
     31 O31        33.3850    4.6710  -12.9700 O.2       1 MOL        -0.5700 
     32 H1         37.8360   -2.5220  -13.2620 H         1 MOL         0.0000 
     33 H2         37.2710   -0.2080  -12.8120 H         1 MOL         0.0000 
     34 H3         34.7910   -0.7820  -14.5060 H         1 MOL         0.0000 
     35 H4         35.2820   -3.3900  -12.6010 H         1 MOL         0.0000 
     36 H5         37.3320   -1.7330  -11.0220 H         1 MOL         0.1500 
     37 H6         35.6720   -2.3740  -15.2360 H         1 MOL         0.4000 
     38 H7         36.8720   -0.3820  -15.6880 H         1 MOL         0.4000 
     39 H8         34.9850   -3.4680  -10.1030 H         1 MOL         0.1500 
     40 H9         36.2000   -1.9050   -8.1330 H         1 MOL         0.0000 
     41 H10        37.6310   -2.7450   -8.7750 H         1 MOL         0.0000 
     42 H11        35.4390   -4.5590   -8.3400 H         1 MOL         0.3700 
     43 H12        35.8850   -9.4980   -5.1890 H         1 MOL         0.1500 
     44 H13        38.3820   -6.0100   -5.4040 H         1 MOL         0.1500 
     45 H14        33.5570   -6.5170   -7.7930 H         1 MOL         0.4500 
     46 H15        33.1120   -8.0150   -6.6150 H         1 MOL         0.4500 
     47 H16        36.1040    1.3030  -11.7570 H         1 MOL         0.1500 
     48 H17        35.2340    3.7180  -11.5550 H         1 MOL         0.1500 
     49 H18        33.1160    0.5100  -14.6400 H         1 MOL         0.1500 
     50 H19        32.3090    2.9300  -14.4980 H         1 MOL         0.1500 
@<TRIPOS>BOND
     1    1    2 1    
     2    1    5 1    
     3    1    8 1    
     4    2    3 1    
     5    2    9 1    
     6    3    4 1    
     7    3    7 1    
     8    4    5 1    
     9    5    6 1    
    10    6   10 2    
    11    7   26 1    
    12    7   29 1    
    13   10   11 1    
    14   11   12 1    
    15   12   13 am   
    16   13   14 1    
    17   13   23 2    
    18   14   15 ar   
    19   14   19 ar   
    20   15   16 ar   
    21   15   21 1    
    22   16   17 ar   
    23   16   22 1    
    24   17   18 ar   
    25   18   19 ar   
    26   18   20 1    
    27   20   24 2    
    28   20   25 2    
    29   26   27 2    
    30   27   28 1    
    31   28   30 1    
    32   28   31 2    
    33   29   30 2    
    34    1   32 1    
    35    2   33 1    
    36    3   34 1    
    37    5   35 1    
    38    6   36 1    
    39    8   37 1    
    40    9   38 1    
    41   10   39 1    
    42   11   40 1    
    43   11   41 1    
    44   12   42 1    
    45   17   43 1    
    46   19   44 1    
    47   21   45 1    
    48   22   46 1    
    49   26   47 1    
    50   27   48 1    
    51   29   49 1    
    52   30   50 1    
@<TRIPOS>SUBSTRUCTURE
     1 MOL         1 PERM              0 ****  ****    0 ROOT 
@<TRIPOS>NORMAL
@<TRIPOS>ALT_TYPE
MMFF94_ALT_TYPE_SET 
MMFF94 1 CR 2 CR 3 CR 5 CR 11 CR 14 CB 15 CB 16 CB 17 CB 18 CB 19 CB \
13 C=ON 28 C=OR 6 C=C 10 C=C 26 C=C 27 C=C 29 C=C 30 C=C \
32 HC 33 HC 34 HC 35 HC 36 HC 39 HC 40 HC 41 HC 43 HC \
44 HC 47 HC 48 HC 49 HC 50 HC 42 HNCO 45 HOCC 46 HOCC \
37 HOR 38 HOR 23 O=CN 31 O=CR 24 O2N 25 O2N 21 OC=C \
22 OC=C 4 OR 8 OR 9 OR 20 NO2 12 NC=O 7 NC=C 
