#	Name:			3coz_ligand
#	Creating user name:	suminyi
#	Creation time:		Sun Sep 30 06:50:59 2018

#	Modifying user name:	suminyi
#	Modification time:	Sun Sep 30 06:50:59 2018

@<TRIPOS>MOLECULE
3coz_ligand
   54    56     1     1     0
SMALL
MMFF94_CHARGES


@<TRIPOS>ATOM
      1 C4         14.1440    9.9570   -2.7100 C.ar      1 MOL         0.1054 
      2 C5         15.1970   10.3850   -3.4500 C.ar      1 MOL         0.2272 
      3 C6         15.0690   10.2370   -4.8210 C.ar      1 MOL         0.4100 
      4 C8         15.7050   10.7760   -1.4480 C.2       1 MOL         0.0365 
      5 N1         13.9950    9.7470   -5.4180 N.ar      1 MOL        -0.6200 
      6 N3         13.0500    9.4060   -3.2420 N.ar      1 MOL        -0.5670 
      7 CG2        13.9410    8.5550    6.5090 C.3       1 MOL         0.0000 
      8 CB         15.0590    9.1550    7.3870 C.3       1 MOL         0.0000 
      9 CG1        14.5890   10.5430    7.8890 C.3       1 MOL         0.0000 
     10 CA         16.4470    9.2060    6.6700 C.3       1 MOL         0.5640 
     11 N          17.2880    7.9270    6.8510 N.4       1 MOL        -0.8530 
     12 C          16.3160    9.6370    5.2040 C.2       1 MOL         0.7453 
     13 O          16.3960    8.8180    4.3210 O.2       1 MOL        -0.5700 
     14 NAP        16.1490   10.9240    4.9600 N.am      1 MOL        -0.7943 
     15 SBD        16.3990   11.6750    3.5220 S.o2      1 MOL         1.6217 
     16 OAF        17.7660   11.4150    3.2050 O.2       1 MOL        -0.6500 
     17 OAG        15.8920   12.9530    3.8920 O.2       1 MOL        -0.6500 
     18 O5'        15.3700   10.9340    2.6120 O.3       1 MOL        -0.4637 
     19 C5'        13.9450   11.0600    2.9020 C.3       1 MOL         0.2800 
     20 C4'        13.1810   10.1310    1.9400 C.3       1 MOL         0.2800 
     21 O4'        13.3220   10.6790    0.5990 O.3       1 MOL        -0.5600 
     22 C3'        13.8210    8.7210    1.8990 C.3       1 MOL         0.2800 
     23 O3'        12.8490    7.6830    1.8110 O.3       1 MOL        -0.6800 
     24 C2'        14.5970    8.7310    0.5870 C.3       1 MOL         0.2800 
     25 O2'        14.7750    7.4140    0.0510 O.3       1 MOL        -0.6800 
     26 C1'        13.7440    9.6350   -0.3040 C.3       1 MOL         0.5356 
     27 N9         14.4620   10.1780   -1.4410 N.pl3     1 MOL         0.0476 
     28 N7         16.2060   10.8830   -2.7050 N.2       1 MOL        -0.5653 
     29 C2         13.0080    9.3660   -4.5830 C.ar      1 MOL         0.4700 
     30 N6         16.0280   10.5330   -5.6910 N.pl3     1 MOL        -0.9000 
     31 H1         16.2210   11.0460   -0.5390 H         1 MOL         0.1500 
     32 H2         13.0170    8.5060    7.0890 H         1 MOL         0.0000 
     33 H3         14.1970    7.5460    6.1790 H         1 MOL         0.0000 
     34 H4         13.7270    9.1630    5.6270 H         1 MOL         0.0000 
     35 H5         15.1560    8.5200    8.2720 H         1 MOL         0.0000 
     36 H6         15.2980   10.9680    8.6020 H         1 MOL         0.0000 
     37 H7         13.6280   10.4580    8.4040 H         1 MOL         0.0000 
     38 H8         14.4440   11.2500    7.0700 H         1 MOL         0.0000 
     39 H9         17.0410    9.9940    7.1410 H         1 MOL         0.0000 
     40 H10        18.0820    7.9060    6.1840 H         1 MOL         0.4500 
     41 H11        16.7900    7.0300    6.6130 H         1 MOL         0.4500 
     42 H12        17.7540    7.8410    7.7840 H         1 MOL         0.4500 
     43 H13        16.1050   11.6200    5.6630 H         1 MOL         0.4200 
     44 H14        13.6070   12.0910    2.7740 H         1 MOL         0.0000 
     45 H15        13.7280   10.7510    3.9270 H         1 MOL         0.0000 
     46 H16        12.1200   10.0790    2.2110 H         1 MOL         0.0000 
     47 H17        14.4940    8.5470    2.7410 H         1 MOL         0.0000 
     48 H18        13.3130    7.0180    1.2350 H         1 MOL         0.4000 
     49 H19        15.5720    9.1970    0.7590 H         1 MOL         0.0000 
     50 H20        15.8030    7.2960    0.0700 H         1 MOL         0.4000 
     51 H21        12.8490    9.1050   -0.6720 H         1 MOL         0.0000 
     52 H22        12.1100    8.9520   -5.0370 H         1 MOL         0.1500 
     53 H23        15.7540   10.6630   -6.6550 H         1 MOL         0.4000 
     54 H24        16.8880   10.9460   -5.3370 H         1 MOL         0.4000 
@<TRIPOS>BOND
     1    1    2 ar   
     2    1    6 ar   
     3   27    1 1    
     4    2    3 ar   
     5   28    2 1    
     6    3    5 ar   
     7    3   30 1    
     8   27    4 1    
     9    4   28 2    
    10   29    5 ar   
    11    6   29 ar   
    12    8    7 1    
    13    8    9 1    
    14   10    8 1    
    15   10   11 1    
    16   12   10 1    
    17   12   13 2    
    18   14   12 am   
    19   15   14 am   
    20   15   16 2    
    21   15   17 2    
    22   18   15 1    
    23   19   18 1    
    24   20   19 1    
    25   21   20 1    
    26   22   20 1    
    27   26   21 1    
    28   22   23 1    
    29   24   22 1    
    30   24   25 1    
    31   26   24 1    
    32   26   27 1    
    33    4   31 1    
    34    7   32 1    
    35    7   33 1    
    36    7   34 1    
    37    8   35 1    
    38    9   36 1    
    39    9   37 1    
    40    9   38 1    
    41   10   39 1    
    42   11   40 1    
    43   11   41 1    
    44   11   42 1    
    45   14   43 1    
    46   19   44 1    
    47   19   45 1    
    48   20   46 1    
    49   22   47 1    
    50   23   48 1    
    51   24   49 1    
    52   25   50 1    
    53   26   51 1    
    54   29   52 1    
    55   30   53 1    
    56   30   54 1    
@<TRIPOS>SUBSTRUCTURE
     1 MOL         1 PERM              0 ****  ****    0 ROOT 
@<TRIPOS>NORMAL
@<TRIPOS>ALT_TYPE
MMFF94_ALT_TYPE_SET 
MMFF94 7 CR 8 CR 9 CR 10 CR 19 CR 20 CR 22 CR 24 CR 26 CR 4 C5A 1 C5A \
2 C5B 3 CB 29 CB 12 C=ON 31 HC 32 HC 33 HC 34 HC 35 HC \
36 HC 37 HC 38 HC 39 HC 44 HC 45 HC 46 HC 47 HC 49 HC \
51 HC 52 HC 53 HNCC 54 HNCC 43 HNCO 40 HNR+ 41 HNR+ 42 HNR+ \
48 HOR 50 HOR 13 O=CN 16 O2S 17 O2S 18 -OS 21 OR 23 OR \
25 OR 5 NPYD 6 NPYD 27 NPYL 28 N5B 11 NR+ 14 NSO3 30 NC=N \
15 SO3 
