#	Name:			3coz_ligand
#	Creating user name:	suminyi
#	Creation time:		Sun Sep 30 06:49:00 2018

#	Modifying user name:	suminyi
#	Modification time:	Sun Sep 30 06:49:00 2018

@<TRIPOS>MOLECULE
3coz_ligand
   54    56     1     1     0
SMALL
MMFF94_CHARGES


@<TRIPOS>ATOM
      1 C4         14.1440    9.9470   -2.7610 C.ar      1 MOL         0.1054 
      2 C5         15.1590   10.4640   -3.5720 C.ar      1 MOL         0.2272 
      3 C6         15.0160   10.3250   -4.9470 C.ar      1 MOL         0.4100 
      4 C8         15.6880   10.7930   -1.4940 C.2       1 MOL         0.0365 
      5 N1         13.8950    9.7240   -5.4300 N.ar      1 MOL        -0.6200 
      6 N3         13.0540    9.3650   -3.3040 N.ar      1 MOL        -0.5670 
      7 CG2        13.5480    8.3750    6.1450 C.3       1 MOL         0.0000 
      8 CB         14.4500    8.9680    7.2170 C.3       1 MOL         0.0000 
      9 CG1        13.8540   10.2730    7.7460 C.3       1 MOL         0.0000 
     10 CA         15.8940    9.1840    6.7100 C.3       1 MOL         0.5640 
     11 N          16.7320    7.9690    6.9390 N.4       1 MOL        -0.8530 
     12 C          16.0040    9.6550    5.2250 C.2       1 MOL         0.7453 
     13 O          16.1600    8.8360    4.3150 O.2       1 MOL        -0.5700 
     14 NAP        15.9720   10.9840    5.0400 N.am      1 MOL        -0.7943 
     15 SBD        16.1370   11.6920    3.5670 S.o2      1 MOL         1.6217 
     16 OAF        17.4950   11.3470    3.0610 O.2       1 MOL        -0.6500 
     17 OAG        15.8890   13.1830    3.6730 O.2       1 MOL        -0.6500 
     18 O5'        15.2160   11.1640    2.5810 O.3       1 MOL        -0.4637 
     19 C5'        13.7860   11.2530    2.8060 C.3       1 MOL         0.2800 
     20 C4'        13.0390   10.3930    1.8110 C.3       1 MOL         0.2800 
     21 O4'        13.2960   10.8810    0.4530 O.3       1 MOL        -0.5600 
     22 C3'        13.5980    8.9690    1.8860 C.3       1 MOL         0.2800 
     23 O3'        12.5010    8.1070    1.8100 O.3       1 MOL        -0.6800 
     24 C2'        14.4490    8.8640    0.6240 C.3       1 MOL         0.2800 
     25 O2'        14.5610    7.5130    0.1160 O.3       1 MOL        -0.6800 
     26 C1'        13.6490    9.7550   -0.3330 C.3       1 MOL         0.5356 
     27 N9         14.4920   10.1660   -1.4980 N.pl3     1 MOL         0.0476 
     28 N7         16.1000   10.9700   -2.7650 N.2       1 MOL        -0.5653 
     29 C2         12.9400    9.2630   -4.6280 C.ar      1 MOL         0.4700 
     30 N6         15.9570   10.7620   -5.7820 N.pl3     1 MOL        -0.9000 
     31 H1         16.2332   11.1060   -0.6048 H         1 MOL         0.1500 
     32 H2         12.5349    8.2403    6.5517 H         1 MOL         0.0000 
     33 H3         13.9479    7.4009    5.8269 H         1 MOL         0.0000 
     34 H4         13.5089    9.0551    5.2813 H         1 MOL         0.0000 
     35 H5         14.4943    8.2524    8.0512 H         1 MOL         0.0000 
     36 H6         14.5151   10.6909    8.5195 H         1 MOL         0.0000 
     37 H7         12.8626   10.0743    8.1792 H         1 MOL         0.0000 
     38 H8         13.7556   10.9926    6.9199 H         1 MOL         0.0000 
     39 H9         16.3193    9.9915    7.3241 H         1 MOL         0.0000 
     40 H10        17.6664    8.1366    6.6001 H         1 MOL         0.4500 
     41 H11        16.3311    7.1865    6.4460 H         1 MOL         0.4500 
     42 H12        16.7641    7.7640    7.9254 H         1 MOL         0.4500 
     43 H13        15.8413   11.5721    5.8382 H         1 MOL         0.4200 
     44 H14        13.4660   12.2992    2.6922 H         1 MOL         0.0000 
     45 H15        13.5577   10.9085    3.8254 H         1 MOL         0.0000 
     46 H16        11.9610   10.4030    2.0297 H         1 MOL         0.0000 
     47 H17        14.1872    8.7883    2.7972 H         1 MOL         0.0000 
     48 H18        12.8030    7.2074    1.8531 H         1 MOL         0.4000 
     49 H19        15.4589    9.2648    0.7959 H         1 MOL         0.0000 
     50 H20        13.6957    7.1824   -0.0947 H         1 MOL         0.4000 
     51 H21        12.7506    9.2334   -0.6946 H         1 MOL         0.0000 
     52 H22        12.0587    8.7989   -5.0558 H         1 MOL         0.1500 
     53 H23        15.8352   10.6511   -6.7987 H         1 MOL         0.4000 
     54 H24        16.8066   11.2109   -5.4110 H         1 MOL         0.4000 
@<TRIPOS>BOND
     1    1    2 ar   
     2    1    6 ar   
     3   27    1 1    
     4    2    3 ar   
     5   28    2 1    
     6    3    5 ar   
     7    3   30 1    
     8   27    4 1    
     9    4   28 2    
    10   29    5 ar   
    11    6   29 ar   
    12    8    7 1    
    13    8    9 1    
    14   10    8 1    
    15   10   11 1    
    16   12   10 1    
    17   12   13 2    
    18   14   12 am   
    19   15   14 am   
    20   15   16 2    
    21   15   17 2    
    22   18   15 1    
    23   19   18 1    
    24   20   19 1    
    25   21   20 1    
    26   22   20 1    
    27   26   21 1    
    28   22   23 1    
    29   24   22 1    
    30   24   25 1    
    31   26   24 1    
    32   26   27 1    
    33    4   31 1    
    34    7   32 1    
    35    7   33 1    
    36    7   34 1    
    37    8   35 1    
    38    9   36 1    
    39    9   37 1    
    40    9   38 1    
    41   10   39 1    
    42   11   40 1    
    43   11   41 1    
    44   11   42 1    
    45   14   43 1    
    46   19   44 1    
    47   19   45 1    
    48   20   46 1    
    49   22   47 1    
    50   23   48 1    
    51   24   49 1    
    52   25   50 1    
    53   26   51 1    
    54   29   52 1    
    55   30   53 1    
    56   30   54 1    
@<TRIPOS>SUBSTRUCTURE
     1 MOL         1 PERM              0 ****  ****    0 ROOT 
@<TRIPOS>NORMAL
@<TRIPOS>ALT_TYPE
MMFF94_ALT_TYPE_SET 
MMFF94 7 CR 8 CR 9 CR 10 CR 19 CR 20 CR 22 CR 24 CR 26 CR 4 C5A 1 C5A \
2 C5B 3 CB 29 CB 12 C=ON 31 HC 32 HC 33 HC 34 HC 35 HC \
36 HC 37 HC 38 HC 39 HC 44 HC 45 HC 46 HC 47 HC 49 HC \
51 HC 52 HC 53 HNCC 54 HNCC 43 HNCO 40 HNR+ 41 HNR+ 42 HNR+ \
48 HOR 50 HOR 13 O=CN 16 O2S 17 O2S 18 -OS 21 OR 23 OR \
25 OR 5 NPYD 6 NPYD 27 NPYL 28 N5B 11 NR+ 14 NSO3 30 NC=N \
15 SO3 
