#	Name:			2xnb_ligand
#	Creating user name:	suminyi
#	Creation time:		Sun Sep 30 06:51:12 2018

#	Modifying user name:	suminyi
#	Modification time:	Sun Sep 30 06:51:12 2018

@<TRIPOS>MOLECULE
2xnb_ligand
   50    53     1     1     0
SMALL
MMFF94_CHARGES


@<TRIPOS>ATOM
      1 C17        21.3770   23.9510   29.5850 C.3       1 MOL         0.3691 
      2 C18        21.1570   22.4290   29.4170 C.3       1 MOL         0.5030 
      3 N19        22.0220   21.7920   28.3530 N.4       1 MOL        -0.9060 
      4 C20        21.6440   22.4750   27.0590 C.3       1 MOL         0.5030 
      5 C21        22.0400   23.9560   27.0810 C.3       1 MOL         0.3691 
      6 N16        21.7310   24.6920   28.3460 N.pl3     1 MOL        -0.8382 
      7 C12        22.1880   25.9970   28.4630 C.ar      1 MOL         0.1000 
      8 C13        23.0910   26.5230   27.5320 C.ar      1 MOL        -0.1500 
      9 C14        23.6290   27.7860   27.6970 C.ar      1 MOL        -0.1500 
     10 C11        21.8020   26.8270   29.5270 C.ar      1 MOL        -0.1500 
     11 C10        22.3280   28.1160   29.6640 C.ar      1 MOL        -0.1500 
     12 C9         23.2720   28.5970   28.7630 C.ar      1 MOL         0.1000 
     13 N7         23.8250   29.8310   28.9620 N.pl3     1 MOL        -0.6000 
     14 C4         24.8930   30.4760   28.4540 C.ar      1 MOL         0.7200 
     15 N5         25.8140   29.8260   27.7350 N.ar      1 MOL        -0.6200 
     16 N3         24.8320   31.7790   28.7000 N.ar      1 MOL        -0.6200 
     17 C2         25.7950   32.5040   28.1120 C.ar      1 MOL         0.1600 
     18 C1         26.8090   31.9260   27.3770 C.ar      1 MOL        -0.1500 
     19 C6         26.7980   30.5550   27.1860 C.ar      1 MOL         0.3384 
     20 C15        27.8200   29.9720   26.3220 C.2       1 MOL         0.0726 
     21 S23        29.1910   30.8830   25.7200 S.3       1 MOL        -0.2420 
     22 C24        29.7090   29.5360   24.7250 C.2       1 MOL         0.7710 
     23 O28        30.7510   29.5110   24.0950 O.2       1 MOL        -0.5700 
     24 N25        28.8170   28.5400   24.8260 N.am      1 MOL        -0.4691 
     25 C29        28.8580   27.3810   23.9000 C.3       1 MOL         0.3001 
     26 C26        27.8140   28.6920   25.7770 C.2       1 MOL        -0.0292 
     27 C27        26.8600   27.5730   26.1200 C.3       1 MOL         0.1382 
     28 H1         22.1730   24.1050   30.3210 H         1 MOL         0.0000 
     29 H2         20.4580   24.3740   30.0020 H         1 MOL         0.0000 
     30 H3         20.1190   22.2550   29.1240 H         1 MOL         0.0000 
     31 H4         21.3390   21.9240   30.3710 H         1 MOL         0.0000 
     32 H5         21.9050   20.7660   28.3000 H         1 MOL         0.4500 
     33 H6         23.0260   22.0040   28.5450 H         1 MOL         0.4500 
     34 H7         20.5640   22.3860   26.9110 H         1 MOL         0.0000 
     35 H8         22.1540   21.9810   26.2260 H         1 MOL         0.0000 
     36 H9         21.5660   24.4630   26.2380 H         1 MOL         0.0000 
     37 H10        23.1210   23.9680   26.9170 H         1 MOL         0.0000 
     38 H11        23.4390   25.9670   26.6680 H         1 MOL         0.1500 
     39 H12        24.3360   28.1220   26.9630 H         1 MOL         0.1500 
     40 H13        21.0880   26.4870   30.2700 H         1 MOL         0.1500 
     41 H14        22.0190   28.7390   30.4970 H         1 MOL         0.1500 
     42 H15        23.2590   30.4780   29.5060 H         1 MOL         0.4000 
     43 H16        25.7070   33.5800   28.1990 H         1 MOL         0.1500 
     44 H17        27.5510   32.5650   26.9210 H         1 MOL         0.1500 
     45 H18        29.5990   27.5290   23.1090 H         1 MOL         0.0000 
     46 H19        27.8810   27.2560   23.4200 H         1 MOL         0.0000 
     47 H20        29.1060   26.4640   24.4420 H         1 MOL         0.0000 
     48 H21        26.6370   27.5360   27.1870 H         1 MOL         0.0000 
     49 H22        27.2820   26.5950   25.8820 H         1 MOL         0.0000 
     50 H23        25.9340   27.6730   25.5520 H         1 MOL         0.0000 
@<TRIPOS>BOND
     1    1    2 1    
     2    1    6 1    
     3    2    3 1    
     4    3    4 1    
     5    4    5 1    
     6    5    6 1    
     7    6    7 1    
     8    7    8 ar   
     9    7   10 ar   
    10    8    9 ar   
    11    9   12 ar   
    12   10   11 ar   
    13   11   12 ar   
    14   12   13 1    
    15   13   14 1    
    16   14   15 ar   
    17   14   16 ar   
    18   15   19 ar   
    19   16   17 ar   
    20   17   18 ar   
    21   18   19 ar   
    22   19   20 1    
    23   20   21 1    
    24   20   26 2    
    25   21   22 1    
    26   22   23 2    
    27   22   24 am   
    28   24   25 1    
    29   24   26 1    
    30   26   27 1    
    31    1   28 1    
    32    1   29 1    
    33    2   30 1    
    34    2   31 1    
    35    3   32 1    
    36    3   33 1    
    37    4   34 1    
    38    4   35 1    
    39    5   36 1    
    40    5   37 1    
    41    8   38 1    
    42    9   39 1    
    43   10   40 1    
    44   11   41 1    
    45   13   42 1    
    46   17   43 1    
    47   18   44 1    
    48   25   45 1    
    49   25   46 1    
    50   25   47 1    
    51   27   48 1    
    52   27   49 1    
    53   27   50 1    
@<TRIPOS>SUBSTRUCTURE
     1 MOL         1 PERM              0 ****  ****    0 ROOT 
@<TRIPOS>NORMAL
@<TRIPOS>ALT_TYPE
MMFF94_ALT_TYPE_SET 
MMFF94 1 CR 2 CR 4 CR 5 CR 25 CR 27 CR 7 CB 8 CB 9 CB 10 CB 11 CB 12 CB \
14 CB 17 CB 18 CB 19 CB 22 C=ON 20 C=C 26 C=C 28 HC 29 HC \
30 HC 31 HC 34 HC 35 HC 36 HC 37 HC 38 HC 39 HC 40 HC \
41 HC 43 HC 44 HC 45 HC 46 HC 47 HC 48 HC 49 HC 50 HC \
42 HNCC 32 HNR+ 33 HNR+ 23 O=CN 15 NPYD 16 NPYD 3 NR+ \
24 NC=O 13 NC=N 6 NC=C 21 S 
