#	Name:			2weg_ligand
#	Creating user name:	suminyi
#	Creation time:		Sun Sep 30 06:49:06 2018

#	Modifying user name:	suminyi
#	Modification time:	Sun Sep 30 06:49:06 2018

@<TRIPOS>MOLECULE
2weg_ligand
   17    17     1     1     0
SMALL
MMFF94_CHARGES


@<TRIPOS>ATOM
      1 C1         17.1360    6.0810   14.2900 C.ar      1 FBV        -0.1500 
      2 C2         15.7580    6.0500   14.4810 C.ar      1 FBV        -0.1500 
      3 C3         15.1360    5.0390   15.2330 C.ar      1 FBV        -0.1500 
      4 C4         15.9330    3.9930   15.7820 C.ar      1 FBV        -0.0090 
      5 C5         17.3440    4.1100   15.5410 C.ar      1 FBV         0.1900 
      6 C6         17.9340    5.1140   14.8250 C.ar      1 FBV        -0.1500 
      7 S          15.2380    2.6850   16.7310 S.o2      1 FBV         1.4470 
      8 N2         15.7140    1.3040   16.0720 N.am      1 FBV        -0.9780 
      9 O1         15.8190    2.8490   18.0770 O.2       1 FBV        -0.6500 
     10 O2         13.8330    2.8260   16.5560 O.2       1 FBV        -0.6500 
     11 F          18.1030    3.1530   16.1200 F         1 FBV        -0.1900 
     12 H1         17.5794    6.8822   13.7099 H         1 FBV         0.1500 
     13 H2         15.1471    6.8277   14.0371 H         1 FBV         0.1500 
     14 H3         14.0640    5.0545   15.3934 H         1 FBV         0.1500 
     15 H4         19.0088    5.1405   14.6863 H         1 FBV         0.1500 
     16 H5         15.4223    0.4338   16.4690 H         1 FBV         0.4200 
     17 H6         16.3027    1.3124   15.2637 H         1 FBV         0.4200 
@<TRIPOS>BOND
     1    1    2 ar   
     2    1    6 ar   
     3    2    3 ar   
     4    3    4 ar   
     5    4    5 ar   
     6    4    7 1    
     7    5    6 ar   
     8    5   11 1    
     9    7    8 am   
    10    7    9 2    
    11    7   10 2    
    12    1   12 1    
    13    2   13 1    
    14    3   14 1    
    15    6   15 1    
    16    8   16 1    
    17    8   17 1    
@<TRIPOS>SUBSTRUCTURE
     1 FBV         1 PERM              0 ****  ****    0 ROOT 
@<TRIPOS>NORMAL
@<TRIPOS>ALT_TYPE
MMFF94_ALT_TYPE_SET 
MMFF94 1 CB 2 CB 3 CB 4 CB 5 CB 6 CB 12 HC 13 HC 14 HC 15 HC 16 HNSO \
17 HNSO 9 O2S 10 O2S 8 NSO2 7 SO2N 11 F 
