#	Name:			2weg_ligand
#	Creating user name:	suminyi
#	Creation time:		Sun Sep 30 06:51:03 2018

#	Modifying user name:	suminyi
#	Modification time:	Sun Sep 30 06:51:03 2018

@<TRIPOS>MOLECULE
2weg_ligand
   17    17     1     1     0
SMALL
MMFF94_CHARGES


@<TRIPOS>ATOM
      1 C1         16.9910    5.9010   14.3340 C.ar      1 MOL        -0.1500 
      2 C2         15.6110    5.8840   14.5380 C.ar      1 MOL        -0.1500 
      3 C3         15.0280    4.8730   15.3020 C.ar      1 MOL        -0.1500 
      4 C4         15.8240    3.8730   15.8650 C.ar      1 MOL        -0.0090 
      5 C5         17.2000    3.9030   15.6720 C.ar      1 MOL         0.1900 
      6 C6         17.7830    4.9100   14.9090 C.ar      1 MOL        -0.1500 
      7 S          15.0910    2.6190   16.8800 S.o2      1 MOL         1.4470 
      8 N2         15.3430    1.2140   16.1400 N.am      1 MOL        -0.9780 
      9 O1         15.8970    2.2750   18.0330 O.2       1 MOL        -0.6500 
     10 O2         13.6450    2.6440   16.8110 O.2       1 MOL        -0.6500 
     11 F          17.9920    2.9850   16.2350 F         1 MOL        -0.1900 
     12 H1         17.4500    6.6830   13.7310 H         1 MOL         0.1500 
     13 H2         14.9860    6.6550   14.0950 H         1 MOL         0.1500 
     14 H3         13.9530    4.8750   15.4720 H         1 MOL         0.1500 
     15 H4         18.8630    4.9170   14.7650 H         1 MOL         0.1500 
     16 H5         14.5600    0.7200   16.5790 H         1 MOL         0.4200 
     17 H6         16.1350    0.8880   16.7070 H         1 MOL         0.4200 
@<TRIPOS>BOND
     1    1    2 ar   
     2    1    6 ar   
     3    2    3 ar   
     4    3    4 ar   
     5    4    5 ar   
     6    4    7 1    
     7    5    6 ar   
     8    5   11 1    
     9    7    8 am   
    10    7    9 2    
    11    7   10 2    
    12    1   12 1    
    13    2   13 1    
    14    3   14 1    
    15    6   15 1    
    16    8   16 1    
    17    8   17 1    
@<TRIPOS>SUBSTRUCTURE
     1 MOL         1 PERM              0 ****  ****    0 ROOT 
@<TRIPOS>NORMAL
@<TRIPOS>ALT_TYPE
MMFF94_ALT_TYPE_SET 
MMFF94 1 CB 2 CB 3 CB 4 CB 5 CB 6 CB 12 HC 13 HC 14 HC 15 HC 16 HNSO \
17 HNSO 9 O2S 10 O2S 8 NSO2 7 SO2N 11 F 
