#	Name:			4f9w_ligand
#	Creating user name:	suminyi
#	Creation time:		Sun Sep 30 06:51:04 2018

#	Modifying user name:	suminyi
#	Modification time:	Sun Sep 30 06:51:07 2018

@<TRIPOS>MOLECULE
4f9w_ligand
   43    46     1     1     0
SMALL
MMFF94_CHARGES


@<TRIPOS>ATOM
      1 C3          1.0320    4.5190   22.7140 C.3       1 MOL         0.3691 
      2 N2          0.2800    3.3960   23.3070 N.pl3     1 MOL        -0.8382 
      3 C1          0.9840    2.7060   24.4050 C.3       1 MOL         0.3691 
      4 C4         -0.7090    2.7920   22.5610 C.ar      1 MOL         0.4100 
      5 N9         -1.3270    3.5490   21.6190 N.ar      1 MOL        -0.3100 
      6 N8         -2.2320    3.0100   20.7690 N.ar      1 MOL        -0.3100 
      7 C7         -2.5720    1.7050   20.7930 C.ar      1 MOL         0.3100 
      8 C6         -2.0210    0.8880   21.8540 C.ar      1 MOL         0.0000 
      9 C10        -2.4450   -0.5230   22.1020 C.ar      1 MOL         0.0000 
     10 C21        -2.6390   -1.4380   21.0510 C.ar      1 MOL        -0.1500 
     11 C20        -3.1260   -2.7040   21.3430 C.ar      1 MOL         0.1600 
     12 N19        -3.4290   -3.1070   22.5950 N.ar      1 MOL        -0.6200 
     13 C18        -3.1930   -2.2490   23.6130 C.ar      1 MOL         0.1600 
     14 C17        -2.7140   -0.9620   23.4110 C.ar      1 MOL        -0.1500 
     15 C5         -1.0580    1.4510   22.7230 C.ar      1 MOL        -0.1500 
     16 C11        -3.6060    1.2750   19.7940 C.ar      1 MOL         0.0000 
     17 C16        -3.3380    1.3140   18.4150 C.ar      1 MOL        -0.1500 
     18 C15        -4.2710    0.8100   17.5070 C.ar      1 MOL         0.0000 
     19 C25        -3.9730    0.7710   16.1450 C.ar      1 MOL        -0.1500 
     20 C24        -4.8670    0.1820   15.2540 C.ar      1 MOL        -0.1500 
     21 C23        -6.0910   -0.3030   15.7060 C.ar      1 MOL        -0.1500 
     22 C22        -6.4180   -0.2150   17.0550 C.ar      1 MOL        -0.1500 
     23 C14        -5.4970    0.3100   17.9600 C.ar      1 MOL         0.0000 
     24 C13        -5.7810    0.3040   19.3210 C.ar      1 MOL        -0.1500 
     25 C12        -4.8370    0.7640   20.2330 C.ar      1 MOL        -0.1500 
     26 H1          1.9030    4.7780   23.3220 H         1 MOL         0.0000 
     27 H2          0.3880    5.4000   22.6360 H         1 MOL         0.0000 
     28 H3          1.3830    4.2540   21.7110 H         1 MOL         0.0000 
     29 H4          0.2800    2.1530   25.0320 H         1 MOL         0.0000 
     30 H5          1.4980    3.4300   25.0440 H         1 MOL         0.0000 
     31 H6          1.7280    2.0150   23.9990 H         1 MOL         0.0000 
     32 H7         -2.4360   -1.1720   20.0180 H         1 MOL         0.1500 
     33 H8         -3.3010   -3.4310   20.5540 H         1 MOL         0.1500 
     34 H9         -3.4360   -2.6090   24.6110 H         1 MOL         0.1500 
     35 H10        -2.5890   -0.3030   24.2670 H         1 MOL         0.1500 
     36 H11        -0.5820    0.8490   23.4880 H         1 MOL         0.1500 
     37 H12        -2.3860    1.6980   18.0460 H         1 MOL         0.1500 
     38 H13        -3.0360    1.1870   15.7740 H         1 MOL         0.1500 
     39 H14        -4.6070    0.1030   14.2040 H         1 MOL         0.1500 
     40 H15        -6.7890   -0.7510   15.0030 H         1 MOL         0.1500 
     41 H16        -7.3750   -0.5970   17.4030 H         1 MOL         0.1500 
     42 H17        -6.7300   -0.0900   19.6740 H         1 MOL         0.1500 
     43 H18        -5.0480    0.7090   21.2920 H         1 MOL         0.1500 
@<TRIPOS>BOND
     1    1    2 1    
     2    2    3 1    
     3    2    4 1    
     4    4    5 ar   
     5    4   15 ar   
     6    5    6 ar   
     7    6    7 ar   
     8    7    8 ar   
     9    7   16 1    
    10    8    9 1    
    11    8   15 ar   
    12    9   10 ar   
    13    9   14 ar   
    14   10   11 ar   
    15   11   12 ar   
    16   12   13 ar   
    17   13   14 ar   
    18   16   17 ar   
    19   16   25 ar   
    20   17   18 ar   
    21   18   19 ar   
    22   18   23 ar   
    23   19   20 ar   
    24   20   21 ar   
    25   21   22 ar   
    26   22   23 ar   
    27   23   24 ar   
    28   24   25 ar   
    29    1   26 1    
    30    1   27 1    
    31    1   28 1    
    32    3   29 1    
    33    3   30 1    
    34    3   31 1    
    35   10   32 1    
    36   11   33 1    
    37   13   34 1    
    38   14   35 1    
    39   15   36 1    
    40   17   37 1    
    41   19   38 1    
    42   20   39 1    
    43   21   40 1    
    44   22   41 1    
    45   24   42 1    
    46   25   43 1    
@<TRIPOS>SUBSTRUCTURE
     1 MOL         1 PERM              0 ****  ****    0 ROOT 
@<TRIPOS>NORMAL
@<TRIPOS>ALT_TYPE
MMFF94_ALT_TYPE_SET 
MMFF94 1 CR 3 CR 4 CB 7 CB 8 CB 9 CB 10 CB 11 CB 13 CB 14 CB 15 CB 16 CB \
17 CB 18 CB 19 CB 20 CB 21 CB 22 CB 23 CB 24 CB 25 CB \
26 HC 27 HC 28 HC 29 HC 30 HC 31 HC 32 HC 33 HC 34 HC \
35 HC 36 HC 37 HC 38 HC 39 HC 40 HC 41 HC 42 HC 43 HC \
5 NPYD 6 NPYD 12 NPYD 2 NC=N 
