#	Name:			2yfe_ligand
#	Creating user name:	suminyi
#	Creation time:		Sun Sep 30 06:49:01 2018

#	Modifying user name:	suminyi
#	Modification time:	Sun Sep 30 06:49:01 2018

@<TRIPOS>MOLECULE
2yfe_ligand
   48    49     1     1     0
SMALL
MMFF94_CHARGES


@<TRIPOS>ATOM
      1 CAB        18.6640   17.5110   44.2480 C.3       1 YFE         0.1382 
      2 CAR        17.1790   17.8100   44.5240 C.2       1 YFE        -0.2764 
      3 CAC        16.2080   17.7330   43.3220 C.3       1 YFE         0.1382 
      4 CAG        16.6600   18.1180   45.8000 C.2       1 YFE        -0.2882 
      5 CAN        17.2270   18.2660   47.0780 C.3       1 YFE         0.2817 
      6 CAX        16.9040   19.6930   47.6090 C.ar      1 YFE        -0.1435 
      7 CAW        15.5970   20.1680   47.7370 C.ar      1 YFE         0.0825 
      8 CAM        15.3210   21.4570   48.1940 C.ar      1 YFE        -0.1500 
      9 OAQ        14.5520   19.3570   47.4130 O.3       1 YFE        -0.3625 
     10 CAA        13.4130   19.6300   48.2760 C.3       1 YFE         0.2800 
     11 CAU        17.9230   20.5690   47.9840 C.ar      1 YFE         0.0825 
     12 OAF        19.2160   20.1590   47.8900 O.3       1 YFE        -0.5325 
     13 CAY        17.6630   21.8630   48.4410 C.ar      1 YFE        -0.1790 
     14 CAS        18.8620   22.7510   48.8280 C.2       1 YFE         0.9790 
     15 OAE        19.9900   22.2040   48.8470 O.co2     1 YFE        -0.9000 
     16 OAD        18.6550   23.9480   49.1340 O.co2     1 YFE        -0.9000 
     17 CAV        16.3410   22.3180   48.5690 C.ar      1 YFE        -0.1435 
     18 CAP        15.9040   23.7170   49.0390 C.3       1 YFE         0.1435 
     19 CAO        15.7120   23.8370   50.5400 C.3       1 YFE         0.1435 
     20 CAT        15.1980   25.2300   50.9540 C.ar      1 YFE        -0.1435 
     21 CAK        14.8020   26.1750   50.0090 C.ar      1 YFE        -0.1500 
     22 CAI        14.3350   27.4320   50.4130 C.ar      1 YFE        -0.1500 
     23 CAH        14.2700   27.7410   51.7710 C.ar      1 YFE        -0.1500 
     24 CAJ        14.6670   26.7950   52.7280 C.ar      1 YFE        -0.1500 
     25 CAL        15.1300   25.5470   52.3130 C.ar      1 YFE        -0.1500 
     26 H1         18.8031   17.3027   43.1769 H         1 YFE         0.0000 
     27 H2         18.9771   16.6353   44.8355 H         1 YFE         0.0000 
     28 H3         19.2727   18.3814   44.5343 H         1 YFE         0.0000 
     29 H4         15.1876   17.9676   43.6594 H         1 YFE         0.0000 
     30 H5         16.2297   16.7184   42.8975 H         1 YFE         0.0000 
     31 H6         16.5162   18.4583   42.5546 H         1 YFE         0.0000 
     32 H7         15.5825   18.2758   45.7930 H         1 YFE         0.1500 
     33 H8         18.3171   18.1327   47.0163 H         1 YFE         0.0000 
     34 H9         16.8036   17.5136   47.7595 H         1 YFE         0.0000 
     35 H10        14.2917   21.7910   48.2569 H         1 YFE         0.1500 
     36 H11        12.5784   18.9679   48.0021 H         1 YFE         0.0000 
     37 H12        13.1040   20.6787   48.1546 H         1 YFE         0.0000 
     38 H13        13.6953   19.4498   49.3238 H         1 YFE         0.0000 
     39 H14        19.7906   20.8584   48.1784 H         1 YFE         0.4500 
     40 H15        14.9508   23.9637   48.5485 H         1 YFE         0.0000 
     41 H16        16.6731   24.4405   48.7307 H         1 YFE         0.0000 
     42 H17        16.6767   23.6541   51.0359 H         1 YFE         0.0000 
     43 H18        14.9832   23.0800   50.8652 H         1 YFE         0.0000 
     44 H19        14.8559   25.9351   48.9532 H         1 YFE         0.1500 
     45 H20        14.0255   28.1614   49.6732 H         1 YFE         0.1500 
     46 H21        13.9121   28.7139   52.0880 H         1 YFE         0.1500 
     47 H22        14.6141   27.0330   53.7842 H         1 YFE         0.1500 
     48 H23        15.4399   24.8163   53.0513 H         1 YFE         0.1500 
@<TRIPOS>BOND
     1    1    2 1    
     2    2    3 1    
     3    2    4 2    
     4    4    5 1    
     5    5    6 1    
     6    6    7 ar   
     7    6   11 ar   
     8    7    8 ar   
     9    7    9 1    
    10    8   17 ar   
    11    9   10 1    
    12   11   12 1    
    13   11   13 ar   
    14   13   14 1    
    15   13   17 ar   
    16   14   15 ar   
    17   14   16 ar   
    18   17   18 1    
    19   18   19 1    
    20   19   20 1    
    21   20   21 ar   
    22   20   25 ar   
    23   21   22 ar   
    24   22   23 ar   
    25   23   24 ar   
    26   24   25 ar   
    27    1   26 1    
    28    1   27 1    
    29    1   28 1    
    30    3   29 1    
    31    3   30 1    
    32    3   31 1    
    33    4   32 1    
    34    5   33 1    
    35    5   34 1    
    36    8   35 1    
    37   10   36 1    
    38   10   37 1    
    39   10   38 1    
    40   12   39 1    
    41   18   40 1    
    42   18   41 1    
    43   19   42 1    
    44   19   43 1    
    45   21   44 1    
    46   22   45 1    
    47   23   46 1    
    48   24   47 1    
    49   25   48 1    
@<TRIPOS>SUBSTRUCTURE
     1 YFE         1 PERM              0 ****  ****    0 ROOT 
@<TRIPOS>NORMAL
@<TRIPOS>ALT_TYPE
MMFF94_ALT_TYPE_SET 
MMFF94 1 CR 3 CR 5 CR 10 CR 18 CR 19 CR 6 CB 7 CB 8 CB 11 CB 13 CB 17 CB \
20 CB 21 CB 22 CB 23 CB 24 CB 25 CB 14 CO2M 2 C=C 4 C=C \
26 HC 27 HC 28 HC 29 HC 30 HC 31 HC 32 HC 33 HC 34 HC \
35 HC 36 HC 37 HC 38 HC 40 HC 41 HC 42 HC 43 HC 44 HC \
45 HC 46 HC 47 HC 48 HC 39 HOCC 15 O2CM 16 O2CM 9 OC=C \
12 OC=C 
