#	Name:			2yfe_ligand
#	Creating user name:	suminyi
#	Creation time:		Sun Sep 30 06:51:11 2018

#	Modifying user name:	suminyi
#	Modification time:	Sun Sep 30 06:51:11 2018

@<TRIPOS>MOLECULE
2yfe_ligand
   48    49     1     1     0
SMALL
MMFF94_CHARGES


@<TRIPOS>ATOM
      1 CAB        18.2940   17.9100   44.2550 C.3       1 MOL         0.1382 
      2 CAR        16.8060   17.7600   44.5020 C.2       1 MOL        -0.2764 
      3 CAC        16.0270   17.4460   43.2410 C.3       1 MOL         0.1382 
      4 CAG        16.1940   17.8990   45.6800 C.2       1 MOL        -0.2882 
      5 CAN        16.8170   18.2410   47.0280 C.3       1 MOL         0.2817 
      6 CAX        16.6190   19.7060   47.4620 C.ar      1 MOL        -0.1435 
      7 CAW        15.3310   20.2140   47.6380 C.ar      1 MOL         0.0825 
      8 CAM        15.1410   21.5260   48.0580 C.ar      1 MOL        -0.1500 
      9 OAQ        14.2340   19.4060   47.4260 O.3       1 MOL        -0.3625 
     10 CAA        13.1390   19.4160   48.3640 C.3       1 MOL         0.2800 
     11 CAU        17.7010   20.5280   47.8040 C.ar      1 MOL         0.0825 
     12 OAF        18.9600   20.0250   47.6960 O.3       1 MOL        -0.5325 
     13 CAY        17.5280   21.8410   48.2940 C.ar      1 MOL        -0.1790 
     14 CAS        18.7510   22.6170   48.7560 C.2       1 MOL         0.9790 
     15 OAE        19.8150   22.0100   48.7960 O.co2     1 MOL        -0.9000 
     16 OAD        18.6540   23.7370   49.1870 O.co2     1 MOL        -0.9000 
     17 CAV        16.2140   22.3570   48.3750 C.ar      1 MOL        -0.1435 
     18 CAP        15.8410   23.7790   48.8090 C.3       1 MOL         0.1435 
     19 CAO        15.7240   23.9550   50.3430 C.3       1 MOL         0.1435 
     20 CAT        15.1640   25.2940   50.8400 C.ar      1 MOL        -0.1435 
     21 CAK        14.8620   26.3600   49.9840 C.ar      1 MOL        -0.1500 
     22 CAI        14.3640   27.5620   50.4850 C.ar      1 MOL        -0.1500 
     23 CAH        14.1770   27.7240   51.8550 C.ar      1 MOL        -0.1500 
     24 CAJ        14.4990   26.6820   52.7210 C.ar      1 MOL        -0.1500 
     25 CAL        14.9930   25.4800   52.2140 C.ar      1 MOL        -0.1500 
     26 H1         18.6600   17.1100   43.6070 H         1 MOL         0.0000 
     27 H2         18.8890   17.8870   45.1670 H         1 MOL         0.0000 
     28 H3         18.4830   18.8540   43.7390 H         1 MOL         0.0000 
     29 H4         14.9600   17.3300   43.4410 H         1 MOL         0.0000 
     30 H5         16.3930   16.5280   42.7760 H         1 MOL         0.0000 
     31 H6         16.1530   18.2510   42.5140 H         1 MOL         0.0000 
     32 H7         15.1160   17.7690   45.7230 H         1 MOL         0.1500 
     33 H8         17.8670   17.9550   47.0490 H         1 MOL         0.0000 
     34 H9         16.3530   17.6080   47.7880 H         1 MOL         0.0000 
     35 H10        14.1320   21.9140   48.1490 H         1 MOL         0.1500 
     36 H11        12.4840   18.5750   48.1420 H         1 MOL         0.0000 
     37 H12        12.5790   20.3490   48.2680 H         1 MOL         0.0000 
     38 H13        13.5320   19.3150   49.3800 H         1 MOL         0.0000 
     39 H14        19.5190   20.7860   48.1280 H         1 MOL         0.4500 
     40 H15        14.8800   24.0330   48.3610 H         1 MOL         0.0000 
     41 H16        16.5520   24.4990   48.4040 H         1 MOL         0.0000 
     42 H17        16.7120   23.8160   50.7840 H         1 MOL         0.0000 
     43 H18        15.0980   23.1490   50.7300 H         1 MOL         0.0000 
     44 H19        15.0390   26.2760   48.9190 H         1 MOL         0.1500 
     45 H20        14.1650   28.3860   49.8080 H         1 MOL         0.1500 
     46 H21        13.8360   28.6750   52.2600 H         1 MOL         0.1500 
     47 H22        14.4060   26.8260   53.7970 H         1 MOL         0.1500 
     48 H23        15.2820   24.6930   52.9050 H         1 MOL         0.1500 
@<TRIPOS>BOND
     1    1    2 1    
     2    2    3 1    
     3    2    4 2    
     4    4    5 1    
     5    5    6 1    
     6    6    7 ar   
     7    6   11 ar   
     8    7    8 ar   
     9    7    9 1    
    10    8   17 ar   
    11    9   10 1    
    12   11   12 1    
    13   11   13 ar   
    14   13   14 1    
    15   13   17 ar   
    16   14   15 ar   
    17   14   16 ar   
    18   17   18 1    
    19   18   19 1    
    20   19   20 1    
    21   20   21 ar   
    22   20   25 ar   
    23   21   22 ar   
    24   22   23 ar   
    25   23   24 ar   
    26   24   25 ar   
    27    1   26 1    
    28    1   27 1    
    29    1   28 1    
    30    3   29 1    
    31    3   30 1    
    32    3   31 1    
    33    4   32 1    
    34    5   33 1    
    35    5   34 1    
    36    8   35 1    
    37   10   36 1    
    38   10   37 1    
    39   10   38 1    
    40   12   39 1    
    41   18   40 1    
    42   18   41 1    
    43   19   42 1    
    44   19   43 1    
    45   21   44 1    
    46   22   45 1    
    47   23   46 1    
    48   24   47 1    
    49   25   48 1    
@<TRIPOS>SUBSTRUCTURE
     1 MOL         1 PERM              0 ****  ****    0 ROOT 
@<TRIPOS>NORMAL
@<TRIPOS>ALT_TYPE
MMFF94_ALT_TYPE_SET 
MMFF94 1 CR 3 CR 5 CR 10 CR 18 CR 19 CR 6 CB 7 CB 8 CB 11 CB 13 CB 17 CB \
20 CB 21 CB 22 CB 23 CB 24 CB 25 CB 14 CO2M 2 C=C 4 C=C \
26 HC 27 HC 28 HC 29 HC 30 HC 31 HC 32 HC 33 HC 34 HC \
35 HC 36 HC 37 HC 38 HC 40 HC 41 HC 42 HC 43 HC 44 HC \
45 HC 46 HC 47 HC 48 HC 39 HOCC 15 O2CM 16 O2CM 9 OC=C \
12 OC=C 
