#	Name:			1qf1_ligand
#	Creating user name:	suminyi
#	Creation time:		Sun Sep 30 06:51:01 2018

#	Modifying user name:	suminyi
#	Modification time:	Sun Sep 30 06:51:01 2018

@<TRIPOS>MOLECULE
1qf1_ligand
   53    53     1     1     0
SMALL
MMFF94_CHARGES


@<TRIPOS>ATOM
      1 SG         34.2000   43.0810   -7.7470 S.3       1 MOL        -0.4100 
      2 CA1        34.4410   41.6630   -6.5790 C.3       1 MOL         0.2910 
      3 CB1        35.1140   40.4860   -7.3170 C.3       1 MOL         0.0000 
      4 CG1        34.1270   39.6590   -8.1530 C.3       1 MOL         0.0000 
      5 CD1        33.6970   38.4290   -7.3430 C.3       1 MOL         0.0000 
      6 CE1        32.6740   37.5830   -8.1150 C.3       1 MOL         0.0000 
      7 CF1        32.2960   36.3730   -7.2590 C.3       1 MOL         0.0000 
      8 C1         35.3750   42.1410   -5.4980 C.2       1 MOL         0.5690 
      9 O1         36.1930   42.9820   -5.8690 O.2       1 MOL        -0.5700 
     10 N2         35.3230   41.6570   -4.2580 N.am      1 MOL        -0.7301 
     11 CA2        36.3130   42.0260   -3.2200 C.3       1 MOL         0.3611 
     12 CB2        35.6640   42.0550   -1.8240 C.3       1 MOL         0.1435 
     13 CG2        36.5690   42.7830   -0.8540 C.ar      1 MOL        -0.1435 
     14 CD3        36.8250   44.1420   -1.0520 C.ar      1 MOL        -0.1500 
     15 CD4        37.1780   42.1020    0.2010 C.ar      1 MOL        -0.1500 
     16 CE3        37.6980   44.8150   -0.2070 C.ar      1 MOL        -0.1500 
     17 CE4        38.0330   42.7840    1.0630 C.ar      1 MOL        -0.1500 
     18 CZ2        38.2850   44.1370    0.8550 C.ar      1 MOL        -0.1500 
     19 C2         37.5510   41.1360   -3.1990 C.2       1 MOL         0.5690 
     20 O2         38.6820   41.5800   -3.1320 O.2       1 MOL        -0.5700 
     21 N3         37.2990   39.8320   -3.3740 N.am      1 MOL        -0.7301 
     22 CA3        38.2710   38.7290   -3.5730 C.3       1 MOL         0.1941 
     23 CB3        38.3530   37.9180   -2.2560 C.3       1 MOL         0.0000 
     24 C3         37.9000   37.8270   -4.7670 C.2       1 MOL         0.9060 
     25 O3         36.9700   38.2170   -5.4570 O.co2     1 MOL        -0.9000 
     26 OXT        38.1720   36.6480   -4.7010 O.co2     1 MOL        -0.9000 
     27 H1         33.1940   42.5400   -8.4620 H         1 MOL         0.1800 
     28 H2         33.5050   41.3640   -6.1050 H         1 MOL         0.0000 
     29 H3         35.6160   39.8370   -6.5990 H         1 MOL         0.0000 
     30 H4         35.8990   40.8510   -7.9720 H         1 MOL         0.0000 
     31 H5         34.6240   39.3230   -9.0680 H         1 MOL         0.0000 
     32 H6         33.2610   40.2560   -8.4490 H         1 MOL         0.0000 
     33 H7         33.2760   38.7460   -6.3850 H         1 MOL         0.0000 
     34 H8         34.5780   37.8170   -7.1200 H         1 MOL         0.0000 
     35 H9         33.0940   37.2480   -9.0670 H         1 MOL         0.0000 
     36 H10        31.7810   38.1780   -8.3240 H         1 MOL         0.0000 
     37 H11        31.4660   35.8190   -7.7010 H         1 MOL         0.0000 
     38 H12        32.0030   36.7430   -6.2800 H         1 MOL         0.0000 
     39 H13        33.1500   35.7020   -7.1320 H         1 MOL         0.0000 
     40 H14        34.5450   41.0540   -3.9840 H         1 MOL         0.3700 
     41 H15        36.6910   43.0280   -3.4370 H         1 MOL         0.0000 
     42 H16        35.4520   41.0400   -1.4800 H         1 MOL         0.0000 
     43 H17        34.7100   42.5790   -1.8660 H         1 MOL         0.0000 
     44 H18        36.3440   44.6850   -1.8630 H         1 MOL         0.1500 
     45 H19        36.9850   41.0440    0.3610 H         1 MOL         0.1500 
     46 H20        37.8920   45.8800   -0.3430 H         1 MOL         0.1500 
     47 H21        38.4860   42.2780    1.9130 H         1 MOL         0.1500 
     48 H22        38.8860   44.6970    1.5660 H         1 MOL         0.1500 
     49 H23        36.3310   39.5570   -3.4860 H         1 MOL         0.3700 
     50 H24        39.2530   39.1410   -3.8150 H         1 MOL         0.0000 
     51 H25        39.1870   37.2140   -2.2870 H         1 MOL         0.0000 
     52 H26        37.4310   37.3520   -2.1030 H         1 MOL         0.0000 
     53 H27        38.4830   38.5720   -1.3950 H         1 MOL         0.0000 
@<TRIPOS>BOND
     1    1    2 1    
     2    2    8 1    
     3    2    3 1    
     4    3    4 1    
     5    4    5 1    
     6    5    6 1    
     7    6    7 1    
     8    8   10 am   
     9    8    9 2    
    10   10   11 1    
    11   11   19 1    
    12   11   12 1    
    13   12   13 1    
    14   13   15 ar   
    15   13   14 ar   
    16   14   16 ar   
    17   16   18 ar   
    18   18   17 ar   
    19   17   15 ar   
    20   19   21 am   
    21   19   20 2    
    22   21   22 1    
    23   22   24 1    
    24   22   23 1    
    25   24   26 ar   
    26   24   25 ar   
    27    1   27 1    
    28    2   28 1    
    29    3   29 1    
    30    3   30 1    
    31    4   31 1    
    32    4   32 1    
    33    5   33 1    
    34    5   34 1    
    35    6   35 1    
    36    6   36 1    
    37    7   37 1    
    38    7   38 1    
    39    7   39 1    
    40   10   40 1    
    41   11   41 1    
    42   12   42 1    
    43   12   43 1    
    44   14   44 1    
    45   15   45 1    
    46   16   46 1    
    47   17   47 1    
    48   18   48 1    
    49   21   49 1    
    50   22   50 1    
    51   23   51 1    
    52   23   52 1    
    53   23   53 1    
@<TRIPOS>SUBSTRUCTURE
     1 MOL         1 PERM              0 ****  ****    0 ROOT 
@<TRIPOS>NORMAL
@<TRIPOS>ALT_TYPE
MMFF94_ALT_TYPE_SET 
MMFF94 2 CR 3 CR 4 CR 5 CR 6 CR 7 CR 11 CR 12 CR 22 CR 23 CR 13 CB 14 CB \
15 CB 16 CB 17 CB 18 CB 24 CO2M 8 C=ON 19 C=ON 28 HC \
29 HC 30 HC 31 HC 32 HC 33 HC 34 HC 35 HC 36 HC 37 HC \
38 HC 39 HC 41 HC 42 HC 43 HC 44 HC 45 HC 46 HC 47 HC \
48 HC 50 HC 51 HC 52 HC 53 HC 40 HNCO 49 HNCO 27 HS 25 O2CM \
26 O2CM 9 O=CN 20 O=CN 10 NC=O 21 NC=O 1 S 
