#	Name:			4kz6_ligand
#	Creating user name:	suminyi
#	Creation time:		Sun Sep 30 06:51:10 2018

#	Modifying user name:	suminyi
#	Modification time:	Sun Sep 30 06:51:10 2018

@<TRIPOS>MOLECULE
4kz6_ligand
   31    31     1     1     0
SMALL
MMFF94_CHARGES


@<TRIPOS>ATOM
      1 C01        77.5910    7.5790   27.4670 C.3       1 MOL         0.0000 
      2 C02        78.7390    7.8870   28.4410 C.3       1 MOL         0.3001 
      3 C03        79.9250    8.5820   27.7370 C.3       1 MOL         0.0000 
      4 C04        80.7020    7.6090   26.8290 C.3       1 MOL         0.0000 
      5 C05        81.1190    6.3590   27.6310 C.3       1 MOL         0.0000 
      6 C06        79.9130    5.6770   28.3430 C.3       1 MOL         0.1941 
      7 N07        79.1630    6.6770   29.1840 N.am      1 MOL        -0.6602 
      8 C08        78.9040    6.5580   30.5210 C.2       1 MOL         0.5690 
      9 O09        78.1690    7.3570   31.0760 O.2       1 MOL        -0.5700 
     10 C10        79.5650    5.4570   31.3210 C.3       1 MOL         0.0610 
     11 C11        79.6280    5.7450   32.8340 C.3       1 MOL         0.2300 
     12 S12        80.7350    4.5730   33.6940 S.3       1 MOL        -0.4100 
     13 C13        79.0380    4.8100   27.4100 C.2       1 MOL         0.9060 
     14 O14        79.3250    4.6730   26.2420 O.co2     1 MOL        -0.9000 
     15 O15        78.0840    4.2200   27.8850 O.co2     1 MOL        -0.9000 
     16 H          77.1190    8.5020   27.1320 H         1 MOL         0.0000 
     17 H1         76.8600    6.9590   27.9840 H         1 MOL         0.0000 
     18 H2         77.9250    7.0410   26.5810 H         1 MOL         0.0000 
     19 H3         78.3450    8.6240   29.1460 H         1 MOL         0.0000 
     20 H4         80.6030    8.9760   28.4980 H         1 MOL         0.0000 
     21 H5         79.5660    9.4350   27.1600 H         1 MOL         0.0000 
     22 H6         81.5870    8.1080   26.4280 H         1 MOL         0.0000 
     23 H7         80.0890    7.3150   25.9730 H         1 MOL         0.0000 
     24 H8         81.8460    6.6600   28.3900 H         1 MOL         0.0000 
     25 H9         81.6310    5.6570   26.9700 H         1 MOL         0.0000 
     26 H10        80.3580    4.9220   28.9830 H         1 MOL         0.0000 
     27 H11        80.5890    5.3200   30.9790 H         1 MOL         0.0000 
     28 H12        79.0160    4.5320   31.1530 H         1 MOL         0.0000 
     29 H13        78.6260    5.6760   33.2690 H         1 MOL         0.0000 
     30 H14        80.0040    6.7590   33.0020 H         1 MOL         0.0000 
     31 H15        80.4310    4.9820   34.9370 H         1 MOL         0.1800 
@<TRIPOS>BOND
     1    1    2 1    
     2    2    3 1    
     3    2    7 1    
     4    3    4 1    
     5    4    5 1    
     6    5    6 1    
     7    6    7 1    
     8    6   13 1    
     9    7    8 am   
    10    8    9 2    
    11    8   10 1    
    12   10   11 1    
    13   11   12 1    
    14   13   14 ar   
    15   13   15 ar   
    16    1   16 1    
    17    1   17 1    
    18    1   18 1    
    19    2   19 1    
    20    3   20 1    
    21    3   21 1    
    22    4   22 1    
    23    4   23 1    
    24    5   24 1    
    25    5   25 1    
    26    6   26 1    
    27   10   27 1    
    28   10   28 1    
    29   11   29 1    
    30   11   30 1    
    31   12   31 1    
@<TRIPOS>SUBSTRUCTURE
     1 MOL         1 PERM              0 ****  ****    0 ROOT 
@<TRIPOS>NORMAL
@<TRIPOS>ALT_TYPE
MMFF94_ALT_TYPE_SET 
MMFF94 1 CR 2 CR 3 CR 4 CR 5 CR 6 CR 10 CR 11 CR 13 CO2M 8 C=ON 16 HC \
17 HC 18 HC 19 HC 20 HC 21 HC 22 HC 23 HC 24 HC 25 HC \
26 HC 27 HC 28 HC 29 HC 30 HC 31 HS 14 O2CM 15 O2CM 9 O=CN \
7 NC=O 12 S 
