#	Name:			5c2h_ligand
#	Creating user name:	suminyi
#	Creation time:		Sun Sep 30 06:51:04 2018

#	Modifying user name:	suminyi
#	Modification time:	Sun Sep 30 06:51:04 2018

@<TRIPOS>MOLECULE
5c2h_ligand
   55    58     1     1     0
SMALL
MMFF94_CHARGES


@<TRIPOS>ATOM
      1 C3          9.2140   38.4260   60.2880 C.ar      1 MOL         0.4100 
      2 C7         10.7210   39.9530   59.0290 C.3       1 MOL         0.5491 
      3 C9          8.2510   42.9570   58.7240 C.2       1 MOL         0.1981 
      4 C11         9.9350   41.9340   57.6880 C.2       1 MOL         0.0462 
      5 C12        10.9420   41.6950   56.6010 C.3       1 MOL         0.1810 
      6 C13         7.1500   43.9510   58.9370 C.3       1 MOL         0.1800 
      7 C15         5.0250   36.4470   56.5950 C.3       1 MOL         0.0000 
      8 C18         3.5050   34.4810   53.9660 C.ar      1 MOL        -0.1500 
      9 C20         1.2240   35.0160   53.4670 C.ar      1 MOL         0.0000 
     10 C21         1.1260   35.6130   54.7320 C.ar      1 MOL         0.3100 
     11 C           7.6440   37.1720   61.4760 C.ar      1 MOL         0.4870 
     12 N           6.8880   37.0330   60.3850 N.ar      1 MOL        -0.6200 
     13 O           6.6470   37.4540   58.1160 O.3       1 MOL        -0.3625 
     14 S           8.6510   41.7570   59.9150 S.3       1 MOL        -0.0800 
     15 Cl          6.9960   36.4170   62.8880 Cl        1 MOL        -0.1770 
     16 C1          7.3720   37.5980   59.2730 C.ar      1 MOL         0.7025 
     17 N2          8.4990   38.2890   59.1750 N.ar      1 MOL        -0.6200 
     18 C4          8.8360   37.8750   61.5010 C.ar      1 MOL        -0.1435 
     19 N5         10.3320   39.1860   60.2100 N.pl3     1 MOL        -0.8691 
     20 C6          9.6500   38.0100   62.7940 C.3       1 MOL         0.1435 
     21 C8          9.8620   41.1690   58.8210 C.2       1 MOL        -0.1400 
     22 N10         8.9940   42.9350   57.6100 N.2       1 MOL        -0.5653 
     23 C14         5.6290   36.4400   58.0080 C.3       1 MOL         0.2800 
     24 C16         4.4120   35.0630   56.2760 C.3       1 MOL         0.1435 
     25 C17         3.3320   35.0810   55.2110 C.ar      1 MOL         0.1665 
     26 C19         2.4330   34.4420   53.0760 C.ar      1 MOL        -0.1500 
     27 N22         2.1650   35.6300   55.5880 N.ar      1 MOL        -0.6200 
     28 C23         0.1120   34.9810   52.6250 C.ar      1 MOL        -0.1500 
     29 C24        -1.0820   35.5790   53.0220 C.ar      1 MOL        -0.1500 
     30 C25        -1.1800   36.1910   54.2680 C.ar      1 MOL        -0.1500 
     31 C26        -0.0780   36.1920   55.1200 C.ar      1 MOL        -0.1500 
     32 H1         10.6770   39.3030   58.1480 H         1 MOL         0.0000 
     33 H2         11.7670   40.2600   59.1450 H         1 MOL         0.0000 
     34 H3         10.9200   42.5040   55.8690 H         1 MOL         0.0000 
     35 H4         10.7420   40.7570   56.0810 H         1 MOL         0.0000 
     36 H5         11.9540   41.6560   57.0130 H         1 MOL         0.0000 
     37 H6          7.2480   44.7930   58.2480 H         1 MOL         0.0000 
     38 H7          7.1750   44.3520   59.9510 H         1 MOL         0.0000 
     39 H8          6.1750   43.4920   58.7680 H         1 MOL         0.0000 
     40 H9          5.7890   36.6980   55.8550 H         1 MOL         0.0000 
     41 H10         4.2580   37.2250   56.5550 H         1 MOL         0.0000 
     42 H11         4.4550   34.0250   53.7070 H         1 MOL         0.1500 
     43 H12        10.6280   39.5920   61.0850 H         1 MOL         0.4000 
     44 H13        10.5640   38.5960   62.6690 H         1 MOL         0.0000 
     45 H14         9.9450   37.0250   63.1640 H         1 MOL         0.0000 
     46 H15         9.0560   38.4990   63.5690 H         1 MOL         0.0000 
     47 H16         6.0880   35.4700   58.2180 H         1 MOL         0.0000 
     48 H17         4.8460   36.6380   58.7430 H         1 MOL         0.0000 
     49 H18         3.9640   34.6550   57.1840 H         1 MOL         0.0000 
     50 H19         5.2060   34.3730   55.9840 H         1 MOL         0.0000 
     51 H20         2.5340   33.9610   52.1050 H         1 MOL         0.1500 
     52 H21         0.1560   34.4720   51.6650 H         1 MOL         0.1500 
     53 H22        -1.9530   35.5400   52.3680 H         1 MOL         0.1500 
     54 H23        -2.1230   36.6390   54.5800 H         1 MOL         0.1500 
     55 H24        -0.1470   36.6400   56.1030 H         1 MOL         0.1500 
@<TRIPOS>BOND
     1   17    1 ar   
     2    1   18 ar   
     3    1   19 1    
     4   19    2 1    
     5    2   21 1    
     6    3    6 1    
     7   14    3 1    
     8    3   22 2    
     9    4    5 1    
    10   21    4 2    
    11    4   22 1    
    12    7   23 1    
    13   24    7 1    
    14   25    8 ar   
    15    8   26 ar   
    16    9   10 ar   
    17   26    9 ar   
    18    9   28 ar   
    19   10   27 ar   
    20   10   31 ar   
    21   12   11 ar   
    22   11   15 1    
    23   11   18 ar   
    24   16   12 ar   
    25   13   16 1    
    26   23   13 1    
    27   21   14 1    
    28   16   17 ar   
    29   18   20 1    
    30   24   25 1    
    31   25   27 ar   
    32   28   29 ar   
    33   29   30 ar   
    34   30   31 ar   
    35    2   32 1    
    36    2   33 1    
    37    5   34 1    
    38    5   35 1    
    39    5   36 1    
    40    6   37 1    
    41    6   38 1    
    42    6   39 1    
    43    7   40 1    
    44    7   41 1    
    45    8   42 1    
    46   19   43 1    
    47   20   44 1    
    48   20   45 1    
    49   20   46 1    
    50   23   47 1    
    51   23   48 1    
    52   24   49 1    
    53   24   50 1    
    54   26   51 1    
    55   28   52 1    
    56   29   53 1    
    57   30   54 1    
    58   31   55 1    
@<TRIPOS>SUBSTRUCTURE
     1 MOL         1 PERM              0 ****  ****    0 ROOT 
@<TRIPOS>NORMAL
@<TRIPOS>ALT_TYPE
MMFF94_ALT_TYPE_SET 
MMFF94 2 CR 5 CR 6 CR 7 CR 20 CR 23 CR 24 CR 3 C5A 21 C5A 4 C5B 1 CB \
8 CB 9 CB 10 CB 11 CB 16 CB 18 CB 25 CB 26 CB 28 CB 29 CB \
30 CB 31 CB 32 HC 33 HC 34 HC 35 HC 36 HC 37 HC 38 HC \
39 HC 40 HC 41 HC 42 HC 44 HC 45 HC 46 HC 47 HC 48 HC \
49 HC 50 HC 51 HC 52 HC 53 HC 54 HC 55 HC 43 HNCC 13 OR \
12 NPYD 17 NPYD 27 NPYD 22 N5B 19 NC=N 14 STHI 15 CL \

