#	Name:			4dld_ligand
#	Creating user name:	suminyi
#	Creation time:		Sun Sep 30 06:50:56 2018

#	Modifying user name:	suminyi
#	Modification time:	Sun Sep 30 06:50:56 2018

@<TRIPOS>MOLECULE
4dld_ligand
   33    33     1     1     0
SMALL
MMFF94_CHARGES


@<TRIPOS>ATOM
      1 N1          3.3860   35.4510  101.9190 N.2       1 MOL         0.9070 
      2 C4          0.3860   33.5280  103.1410 C.ar      1 MOL        -0.1500 
      3 C5          1.7080   33.8890  102.9370 C.ar      1 MOL         0.1770 
      4 C6          2.0040   35.0040  102.1510 C.ar      1 MOL         0.1330 
      5 C7         -2.0760   33.8400  102.9300 C.3       1 MOL         0.1435 
      6 C8         -2.6200   34.5650  104.1680 C.3       1 MOL         0.3970 
      7 C10        -1.2640   37.6470  100.8160 C.3       1 MOL        -0.1060 
      8 O4         -4.9420   34.5240  103.5940 O.co2     1 MOL        -0.9000 
      9 C12        -4.0850   34.1600  104.3690 C.2       1 MOL         0.9060 
     10 O5         -4.4080   33.6540  105.4250 O.co2     1 MOL        -0.9000 
     11 N2         -1.6810   34.3440  105.3570 N.4       1 MOL        -0.8530 
     12 C3         -0.6580   34.2720  102.5920 C.ar      1 MOL        -0.1435 
     13 Cl1         2.9270   32.9410  103.7130 Cl        1 MOL        -0.1770 
     14 O1          3.6570   36.6050  102.2060 O.3       1 MOL        -0.5200 
     15 O2          4.1890   34.6760  101.4350 O.2       1 MOL        -0.5200 
     16 C1          0.9660   35.7210  101.5580 C.ar      1 MOL        -0.1500 
     17 C2         -0.3730   35.3790  101.7760 C.ar      1 MOL        -0.1435 
     18 C9         -1.4820   36.1360  101.0410 C.3       1 MOL         0.1435 
     19 C11        -1.3810   38.4820  102.0660 C.2       1 MOL         0.9060 
     20 O7         -2.4600   38.4550  102.6260 O.co2     1 MOL        -0.9000 
     21 O6         -0.5260   39.3170  102.2810 O.co2     1 MOL        -0.9000 
     22 H1          0.1760   32.6480  103.7370 H         1 MOL         0.1500 
     23 H2         -2.7400   33.9860  102.0790 H         1 MOL         0.0000 
     24 H3         -2.0880   32.7730  103.1420 H         1 MOL         0.0000 
     25 H4         -2.6340   35.6420  103.9780 H         1 MOL         0.0000 
     26 H5         -2.0510   37.9840  100.1430 H         1 MOL         0.0000 
     27 H6         -0.3170   37.8500  100.3200 H         1 MOL         0.0000 
     28 H7         -2.0840   34.6860  106.2480 H         1 MOL         0.4500 
     29 H8         -0.7740   34.8810  105.3070 H         1 MOL         0.4500 
     30 H9         -1.4550   33.3440  105.5050 H         1 MOL         0.4500 
     31 H10         1.2260   36.5460  100.9040 H         1 MOL         0.1500 
     32 H11        -1.6080   35.6610  100.0650 H         1 MOL         0.0000 
     33 H12        -2.4360   36.0380  101.5560 H         1 MOL         0.0000 
@<TRIPOS>BOND
     1    4    1 1    
     2    1   14 2    
     3    1   15 2    
     4    2    3 ar   
     5   12    2 ar   
     6    4    3 ar   
     7    3   13 1    
     8   16    4 ar   
     9    5    6 1    
    10   12    5 1    
    11    6    9 1    
    12    6   11 1    
    13   18    7 1    
    14    7   19 1    
    15    9    8 ar   
    16    9   10 ar   
    17   17   12 ar   
    18   17   16 ar   
    19   17   18 1    
    20   19   20 ar   
    21   19   21 ar   
    22    2   22 1    
    23    5   23 1    
    24    5   24 1    
    25    6   25 1    
    26    7   26 1    
    27    7   27 1    
    28   11   28 1    
    29   11   29 1    
    30   11   30 1    
    31   16   31 1    
    32   18   32 1    
    33   18   33 1    
@<TRIPOS>SUBSTRUCTURE
     1 MOL         1 PERM              0 ****  ****    0 ROOT 
@<TRIPOS>NORMAL
@<TRIPOS>ALT_TYPE
MMFF94_ALT_TYPE_SET 
MMFF94 5 CR 6 CR 7 CR 18 CR 2 CB 3 CB 4 CB 12 CB 16 CB 17 CB 9 CO2M \
19 CO2M 22 HC 23 HC 24 HC 25 HC 26 HC 27 HC 31 HC 32 HC \
33 HC 28 HNR+ 29 HNR+ 30 HNR+ 8 O2CM 10 O2CM 20 O2CM \
21 O2CM 14 O2N 15 O2N 11 NR+ 1 NO2 13 CL 
