#	Name:			1vso_ligand
#	Creating user name:	suminyi
#	Creation time:		Sun Sep 30 06:51:00 2018

#	Modifying user name:	suminyi
#	Modification time:	Sun Sep 30 06:51:00 2018

@<TRIPOS>MOLECULE
1vso_ligand
   38    38     1     1     0
SMALL
MMFF94_CHARGES


@<TRIPOS>ATOM
      1 N          41.6780    5.1670    5.3700 N.4       1 MOL        -0.8530 
      2 C          39.2870    5.9610    5.5090 C.3       1 MOL         0.1810 
      3 O          40.9820    4.5320    2.6420 O.co2     1 MOL        -0.9000 
      4 C1         40.2420    4.8960    4.9070 C.3       1 MOL         0.3970 
      5 C2         40.0170    4.6730    3.3800 C.2       1 MOL         0.9060 
      6 O1         38.9270    4.3870    2.9240 O.co2     1 MOL        -0.9000 
      7 O2         39.3370    5.9220    9.2920 O.3       1 MOL        -0.0191 
      8 O3         37.8760    3.7790    6.8950 O.3       1 MOL        -0.3420 
      9 N1         38.5940    4.7640    8.9740 N.2       1 MOL        -0.4097 
     10 C3         40.3940    7.8790    8.2000 C.3       1 MOL         0.1800 
     11 C4         37.0100    2.8250    7.5680 C.3       1 MOL         0.2800 
     12 C5         38.5820    4.7030    7.6270 C.2       1 MOL         0.3508 
     13 C6         39.2520    5.7970    7.0280 C.2       1 MOL        -0.1810 
     14 C7         39.6980    6.5240    8.1040 C.2       1 MOL        -0.0400 
     15 C9         39.3970    8.9310    8.7430 C.3       1 MOL         0.0000 
     16 C10        41.5660    7.7780    9.2020 C.3       1 MOL         0.0000 
     17 C11        40.9810    8.4150    6.8820 C.3       1 MOL         0.0000 
     18 P          35.9900    1.8290    6.4410 P.3       1 MOL         1.1000 
     19 O4         36.8610    0.9100    5.6690 O.co2     1 MOL        -1.0333 
     20 O5         35.1200    1.0250    7.3300 O.co2     1 MOL        -1.0333 
     21 O6         35.1570    2.6920    5.5690 O.co2     1 MOL        -1.0333 
     22 H1         41.8030    5.0310    6.4050 H         1 MOL         0.4500 
     23 H2         41.9730    6.1270    5.1100 H         1 MOL         0.4500 
     24 H3         42.3160    4.5200    4.8810 H         1 MOL         0.4500 
     25 H4         38.2830    5.7990    5.1100 H         1 MOL         0.0000 
     26 H5         39.5860    6.9500    5.1750 H         1 MOL         0.0000 
     27 H6         39.9830    3.9330    5.3490 H         1 MOL         0.0000 
     28 H7         36.3180    3.3560    8.2240 H         1 MOL         0.0000 
     29 H8         37.6210    2.1300    8.1480 H         1 MOL         0.0000 
     30 H9         39.8800    9.9040    8.8660 H         1 MOL         0.0000 
     31 H10        38.9990    8.6330    9.7160 H         1 MOL         0.0000 
     32 H11        38.5550    9.0560    8.0580 H         1 MOL         0.0000 
     33 H12        42.2920    7.0590    8.8460 H         1 MOL         0.0000 
     34 H13        41.2240    7.4300   10.1740 H         1 MOL         0.0000 
     35 H14        42.0690    8.7390    9.3370 H         1 MOL         0.0000 
     36 H15        40.1820    8.6950    6.2020 H         1 MOL         0.0000 
     37 H16        41.6250    7.6750    6.4070 H         1 MOL         0.0000 
     38 H17        41.5690    9.3150    7.0690 H         1 MOL         0.0000 
@<TRIPOS>BOND
     1    4    1 1    
     2    2    4 1    
     3   13    2 1    
     4    5    3 ar   
     5    4    5 1    
     6    5    6 ar   
     7    9    7 1    
     8    7   14 1    
     9    8   11 1    
    10   12    8 1    
    11   12    9 2    
    12   14   10 1    
    13   10   15 1    
    14   10   16 1    
    15   10   17 1    
    16   11   18 1    
    17   12   13 1    
    18   13   14 2    
    19   18   19 ar   
    20   18   20 ar   
    21   18   21 ar   
    22    1   22 1    
    23    1   23 1    
    24    1   24 1    
    25    2   25 1    
    26    2   26 1    
    27    4   27 1    
    28   11   28 1    
    29   11   29 1    
    30   15   30 1    
    31   15   31 1    
    32   15   32 1    
    33   16   33 1    
    34   16   34 1    
    35   16   35 1    
    36   17   36 1    
    37   17   37 1    
    38   17   38 1    
@<TRIPOS>SUBSTRUCTURE
     1 MOL         1 PERM              0 ****  ****    0 ROOT 
@<TRIPOS>NORMAL
@<TRIPOS>ALT_TYPE
MMFF94_ALT_TYPE_SET 
MMFF94 2 CR 4 CR 10 CR 11 CR 15 CR 16 CR 17 CR 14 C5A 12 C5B 13 C5B \
5 CO2M 25 HC 26 HC 27 HC 28 HC 29 HC 30 HC 31 HC 32 HC \
33 HC 34 HC 35 HC 36 HC 37 HC 38 HC 22 HNR+ 23 HNR+ 24 HNR+ \
7 OFUR 3 O2CM 6 O2CM 19 O3P 20 O3P 21 O3P 8 OC=N 9 N5A \
1 NR+ 18 PO3 
