#	Name:			1vso_ligand
#	Creating user name:	suminyi
#	Creation time:		Sun Sep 30 06:48:54 2018

#	Modifying user name:	suminyi
#	Modification time:	Sun Sep 30 06:48:54 2018

@<TRIPOS>MOLECULE
1vso_ligand
   38    38     1     1     0
SMALL
MMFF94_CHARGES


@<TRIPOS>ATOM
      1 N          41.8390    5.0010    5.1840 N.4       1 AT1        -0.8530 
      2 C          39.4930    5.8860    5.5700 C.3       1 AT1         0.1810 
      3 O          41.0750    4.6780    2.6580 O.co2     1 AT1        -0.9000 
      4 C1         40.3370    4.7540    4.9780 C.3       1 AT1         0.3970 
      5 C2         40.0710    4.5890    3.4290 C.2       1 AT1         0.9060 
      6 O1         38.8910    4.3770    3.0650 O.co2     1 AT1        -0.9000 
      7 O2         39.4480    6.2390    9.2710 O.3       1 AT1        -0.0191 
      8 O3         38.0380    3.8840    7.1560 O.3       1 AT1        -0.3420 
      9 N1         38.6860    5.0620    9.0890 N.2       1 AT1        -0.4097 
     10 C3         40.6750    8.0160    8.2000 C.3       1 AT1         0.1800 
     11 C4         37.2820    2.9370    7.9810 C.3       1 AT1         0.2800 
     12 C5         38.6710    4.8910    7.7880 C.2       1 AT1         0.3508 
     13 C6         39.3920    5.8970    7.0660 C.2       1 AT1        -0.1810 
     14 C7         39.8570    6.7270    8.0670 C.2       1 AT1        -0.0400 
     15 C9         39.7510    9.0910    8.8210 C.3       1 AT1         0.0000 
     16 C10        41.8670    7.7950    9.1260 C.3       1 AT1         0.0000 
     17 C11        41.1810    8.5560    6.8690 C.3       1 AT1         0.0000 
     18 P          36.2720    1.9120    6.8820 P.3       1 AT1         1.1000 
     19 O4         37.1590    1.1790    5.9410 O.co2     1 AT1        -1.0333 
     20 O5         35.4750    1.0470    7.8200 O.co2     1 AT1        -1.0333 
     21 O6         35.2950    2.8940    6.1530 O.co2     1 AT1        -1.0333 
     22 H1         42.0299    5.1092    6.1678 H         1 AT1         0.4500 
     23 H2         42.1120    5.8389    4.6947 H         1 AT1         0.4500 
     24 H3         42.3608    4.2170    4.8247 H         1 AT1         0.4500 
     25 H4         38.4752    5.8000    5.1616 H         1 AT1         0.0000 
     26 H5         39.9360    6.8415    5.2526 H         1 AT1         0.0000 
     27 H6         40.0599    3.8188    5.4865 H         1 AT1         0.0000 
     28 H7         36.6330    3.4863    8.6788 H         1 AT1         0.0000 
     29 H8         37.9765    2.3011    8.5495 H         1 AT1         0.0000 
     30 H9         40.3075   10.0334    8.9314 H         1 AT1         0.0000 
     31 H10        39.4055    8.7514    9.8085 H         1 AT1         0.0000 
     32 H11        38.8833    9.2524    8.1644 H         1 AT1         0.0000 
     33 H12        42.5308    7.0319    8.6934 H         1 AT1         0.0000 
     34 H13        41.5095    7.4552   10.1092 H         1 AT1         0.0000 
     35 H14        42.4203    8.7385    9.2430 H         1 AT1         0.0000 
     36 H15        40.3295    8.7195    6.1921 H         1 AT1         0.0000 
     37 H16        41.8735    7.8300    6.4182 H         1 AT1         0.0000 
     38 H17        41.7054    9.5086    7.0352 H         1 AT1         0.0000 
@<TRIPOS>BOND
     1    4    1 1    
     2    2    4 1    
     3   13    2 1    
     4    5    3 ar   
     5    4    5 1    
     6    5    6 ar   
     7    9    7 1    
     8    7   14 1    
     9    8   11 1    
    10   12    8 1    
    11   12    9 2    
    12   14   10 1    
    13   10   15 1    
    14   10   16 1    
    15   10   17 1    
    16   11   18 1    
    17   12   13 1    
    18   13   14 2    
    19   18   19 ar   
    20   18   20 ar   
    21   18   21 ar   
    22    1   22 1    
    23    1   23 1    
    24    1   24 1    
    25    2   25 1    
    26    2   26 1    
    27    4   27 1    
    28   11   28 1    
    29   11   29 1    
    30   15   30 1    
    31   15   31 1    
    32   15   32 1    
    33   16   33 1    
    34   16   34 1    
    35   16   35 1    
    36   17   36 1    
    37   17   37 1    
    38   17   38 1    
@<TRIPOS>SUBSTRUCTURE
     1 AT1         1 PERM              0 ****  ****    0 ROOT 
@<TRIPOS>NORMAL
@<TRIPOS>ALT_TYPE
MMFF94_ALT_TYPE_SET 
MMFF94 2 CR 4 CR 10 CR 11 CR 15 CR 16 CR 17 CR 14 C5A 12 C5B 13 C5B \
5 CO2M 25 HC 26 HC 27 HC 28 HC 29 HC 30 HC 31 HC 32 HC \
33 HC 34 HC 35 HC 36 HC 37 HC 38 HC 22 HNR+ 23 HNR+ 24 HNR+ \
7 OFUR 3 O2CM 6 O2CM 19 O3P 20 O3P 21 O3P 8 OC=N 9 N5A \
1 NR+ 18 PO3 
