#	Name:			2qbq_ligand
#	Creating user name:	suminyi
#	Creation time:		Sun Sep 30 06:48:56 2018

#	Modifying user name:	suminyi
#	Modification time:	Sun Sep 30 06:48:56 2018

@<TRIPOS>MOLECULE
2qbq_ligand
   57    59     1     1     0
SMALL
MMFF94_CHARGES


@<TRIPOS>ATOM
      1 S1         44.6110   14.0460    0.5060 S.3       1 MOL        -0.0800 
      2 C2         44.7660   15.4390    1.5570 C.2       1 MOL        -0.1920 
      3 C3         45.6230   15.1800    2.5630 C.2       1 MOL         0.0620 
      4 C4         46.1880   13.8140    2.5260 C.2       1 MOL         0.0570 
      5 C5         45.7320   13.0860    1.4880 C.2       1 MOL        -0.0130 
      6 C6         44.0300   16.6790    1.2250 C.2       1 MOL         1.0320 
      7 O7         43.5770   16.7220    0.0620 O.co2     1 MOL        -0.9000 
      8 O8         43.8610   17.6020    2.0480 O.co2     1 MOL        -0.9000 
      9 C9         46.0430   11.6520    1.1530 C.ar      1 MOL         0.0530 
     10 C10        47.3940   11.1220    1.2180 C.ar      1 MOL        -0.1500 
     11 C11        47.6340    9.7720    0.8020 C.ar      1 MOL         0.1000 
     12 C12        46.5410    8.9630    0.2800 C.ar      1 MOL        -0.1500 
     13 C13        45.1890    9.4480    0.2030 C.ar      1 MOL        -0.1500 
     14 C14        44.9770   10.8000    0.6540 C.ar      1 MOL        -0.1500 
     15 BR1        47.4150   13.2710    3.8780 Br        1 MOL        -0.0570 
     16 O20        45.9150   16.0160    3.5510 O.3       1 MOL        -0.3420 
     17 C21        47.0570   16.8320    3.3680 C.3       1 MOL         0.1740 
     18 C22        47.4380   17.4450    4.7040 C.2       1 MOL         0.9060 
     19 O25        46.6490   17.4000    5.6750 O.co2     1 MOL        -0.9000 
     20 O26        48.5590   17.9810    4.7670 O.co2     1 MOL        -0.9000 
     21 N27        48.9250    9.3140    0.9620 N.pl3     1 MOL        -0.8691 
     22 C28        49.2920    7.9430    1.3340 C.3       1 MOL         0.3691 
     23 C30        50.8110    7.7520    1.2640 C.3       1 MOL         0.0000 
     24 C31        51.2020    6.3090    1.6550 C.3       1 MOL         0.0000 
     25 C32        50.5160    5.8480    2.9610 C.3       1 MOL         0.0000 
     26 C33        49.0100    6.1590    3.0880 C.3       1 MOL         0.0000 
     27 C34        48.7280    7.6260    2.7220 C.3       1 MOL         0.0000 
     28 C42        52.7280    6.2000    1.8710 C.3       1 MOL         0.0000 
     29 C46        50.8260    5.3220    0.5100 C.3       1 MOL         0.0000 
     30 C50        48.7000    5.9580    4.5790 C.3       1 MOL         0.0000 
     31 C54        48.0950    5.2090    2.2450 C.3       1 MOL         0.0000 
     32 H1         48.2096   11.7395    1.5764 H         1 MOL         0.1500 
     33 H2         46.7546    7.9573   -0.0635 H         1 MOL         0.1500 
     34 H3         44.3785    8.8334   -0.1717 H         1 MOL         0.1500 
     35 H4         43.9709   11.2020    0.6192 H         1 MOL         0.1500 
     36 H5         46.8295   17.6303    2.6462 H         1 MOL         0.0000 
     37 H6         47.8906   16.2222    2.9897 H         1 MOL         0.0000 
     38 H7         49.6903    9.9860    0.8086 H         1 MOL         0.4000 
     39 H8         48.8320    7.2518    0.6124 H         1 MOL         0.0000 
     40 H9         51.2952    8.4567    1.9560 H         1 MOL         0.0000 
     41 H10        51.1527    7.9525    0.2378 H         1 MOL         0.0000 
     42 H11        51.0312    6.3368    3.8010 H         1 MOL         0.0000 
     43 H12        50.6409    4.7579    3.0386 H         1 MOL         0.0000 
     44 H13        47.6415    7.7976    2.7205 H         1 MOL         0.0000 
     45 H14        49.2021    8.2835    3.4656 H         1 MOL         0.0000 
     46 H15        53.2513    6.5213    0.9584 H         1 MOL         0.0000 
     47 H16        52.9927    5.1566    2.0974 H         1 MOL         0.0000 
     48 H17        53.0264    6.8446    2.7109 H         1 MOL         0.0000 
     49 H18        49.7427    5.3703    0.3253 H         1 MOL         0.0000 
     50 H19        51.1028    4.2984    0.8026 H         1 MOL         0.0000 
     51 H20        51.3669    5.6004   -0.4065 H         1 MOL         0.0000 
     52 H21        48.8970    4.9120    4.8567 H         1 MOL         0.0000 
     53 H22        47.6427    6.1948    4.7689 H         1 MOL         0.0000 
     54 H23        49.3383    6.6231    5.1792 H         1 MOL         0.0000 
     55 H24        48.3106    5.3466    1.1751 H         1 MOL         0.0000 
     56 H25        47.0393    5.4486    2.4400 H         1 MOL         0.0000 
     57 H26        48.2922    4.1643    2.5274 H         1 MOL         0.0000 
@<TRIPOS>BOND
     1    1    2 1    
     2    1    5 1    
     3    2    3 2    
     4    2    6 1    
     5    3    4 1    
     6    3   16 1    
     7    4    5 2    
     8    4   15 1    
     9    5    9 1    
    10    6    7 ar   
    11    6    8 ar   
    12    9   10 ar   
    13    9   14 ar   
    14   10   11 ar   
    15   11   12 ar   
    16   11   21 1    
    17   12   13 ar   
    18   13   14 ar   
    19   16   17 1    
    20   17   18 1    
    21   18   19 ar   
    22   18   20 ar   
    23   21   22 1    
    24   22   23 1    
    25   22   27 1    
    26   23   24 1    
    27   24   25 1    
    28   24   28 1    
    29   24   29 1    
    30   25   26 1    
    31   26   27 1    
    32   26   30 1    
    33   26   31 1    
    34   10   32 1    
    35   12   33 1    
    36   13   34 1    
    37   14   35 1    
    38   17   36 1    
    39   17   37 1    
    40   21   38 1    
    41   22   39 1    
    42   23   40 1    
    43   23   41 1    
    44   25   42 1    
    45   25   43 1    
    46   27   44 1    
    47   27   45 1    
    48   28   46 1    
    49   28   47 1    
    50   28   48 1    
    51   29   49 1    
    52   29   50 1    
    53   29   51 1    
    54   30   52 1    
    55   30   53 1    
    56   30   54 1    
    57   31   55 1    
    58   31   56 1    
    59   31   57 1    
@<TRIPOS>SUBSTRUCTURE
     1 MOL         1 PERM              0 ****  ****    0 ROOT 
@<TRIPOS>NORMAL
@<TRIPOS>ALT_TYPE
MMFF94_ALT_TYPE_SET 
MMFF94 17 CR 22 CR 23 CR 24 CR 25 CR 26 CR 27 CR 28 CR 29 CR 30 CR 31 CR \
2 C5A 5 C5A 3 C5B 4 C5B 9 CB 10 CB 11 CB 12 CB 13 CB \
14 CB 6 CO2M 18 CO2M 32 HC 33 HC 34 HC 35 HC 36 HC 37 HC \
39 HC 40 HC 41 HC 42 HC 43 HC 44 HC 45 HC 46 HC 47 HC \
48 HC 49 HC 50 HC 51 HC 52 HC 53 HC 54 HC 55 HC 56 HC \
57 HC 38 HNCC 7 O2CM 8 O2CM 19 O2CM 20 O2CM 16 OC=C 21 NC=C \
1 STHI 15 BR 
