#	Name:			2qbq_ligand
#	Creating user name:	suminyi
#	Creation time:		Sun Sep 30 06:51:03 2018

#	Modifying user name:	suminyi
#	Modification time:	Sun Sep 30 06:51:03 2018

@<TRIPOS>MOLECULE
2qbq_ligand
   57    59     1     1     0
SMALL
MMFF94_CHARGES


@<TRIPOS>ATOM
      1 S1         44.3920   14.1850    0.5140 S.3       1 MOL        -0.0800 
      2 C2         44.5250   15.5530    1.5890 C.2       1 MOL        -0.1920 
      3 C3         45.3510   15.2630    2.6420 C.2       1 MOL         0.0620 
      4 C4         45.9350   13.9630    2.5630 C.2       1 MOL         0.0570 
      5 C5         45.5300   13.2550    1.4510 C.2       1 MOL        -0.0130 
      6 C6         43.8060   16.8040    1.3500 C.2       1 MOL         1.0320 
      7 O7         43.1280   16.9040    0.3490 O.co2     1 MOL        -0.9000 
      8 O8         43.8180   17.7460    2.1270 O.co2     1 MOL        -0.9000 
      9 C9         45.8880   11.8710    1.1720 C.ar      1 MOL         0.0530 
     10 C10        47.1560   11.3350    1.4340 C.ar      1 MOL        -0.1500 
     11 C11        47.4610   10.0030    1.1420 C.ar      1 MOL         0.1000 
     12 C12        46.4780    9.1880    0.5790 C.ar      1 MOL        -0.1500 
     13 C13        45.2260    9.7150    0.2740 C.ar      1 MOL        -0.1500 
     14 C14        44.9420   11.0490    0.5540 C.ar      1 MOL        -0.1500 
     15 Br1        46.9550   13.3160    4.0000 Br        1 MOL        -0.0570 
     16 O20        45.6050   16.0730    3.7250 O.3       1 MOL        -0.3420 
     17 C21        46.7920   16.9150    3.6690 C.3       1 MOL         0.1740 
     18 C22        47.2860   17.3790    5.0290 C.2       1 MOL         0.9060 
     19 O25        46.5020   17.5230    5.9620 O.co2     1 MOL        -0.9000 
     20 O26        48.4810   17.5620    5.1780 O.co2     1 MOL        -0.9000 
     21 N27        48.7380    9.5590    1.3830 N.pl3     1 MOL        -0.8691 
     22 C28        49.1210    8.1440    1.5160 C.3       1 MOL         0.3691 
     23 C30        50.6560    7.9690    1.3870 C.3       1 MOL         0.0000 
     24 C31        51.1290    6.4990    1.6010 C.3       1 MOL         0.0000 
     25 C32        50.5290    5.9170    2.9190 C.3       1 MOL         0.0000 
     26 C33        49.0130    6.1650    3.1660 C.3       1 MOL         0.0000 
     27 C34        48.6460    7.6460    2.8960 C.3       1 MOL         0.0000 
     28 C42        52.6690    6.4720    1.7530 C.3       1 MOL         0.0000 
     29 C46        50.7990    5.6220    0.3620 C.3       1 MOL         0.0000 
     30 C50        48.7030    5.8590    4.6500 C.3       1 MOL         0.0000 
     31 C54        48.1220    5.2220    2.3210 C.3       1 MOL         0.0000 
     32 H1         47.9340   11.9770    1.8230 H         1 MOL         0.1500 
     33 H2         46.6790    8.1510    0.3310 H         1 MOL         0.1500 
     34 H3         44.4750    9.0830   -0.1900 H         1 MOL         0.1500 
     35 H4         43.9600   11.4420    0.3150 H         1 MOL         0.1500 
     36 H5         46.5800   17.7980    3.0640 H         1 MOL         0.0000 
     37 H6         47.6130   16.3540    3.2160 H         1 MOL         0.0000 
     38 H7         49.4400   10.2730    1.5150 H         1 MOL         0.4000 
     39 H8         48.6450    7.5580    0.7260 H         1 MOL         0.0000 
     40 H9         51.1370    8.6000    2.1330 H         1 MOL         0.0000 
     41 H10        50.9760    8.3220    0.4030 H         1 MOL         0.0000 
     42 H11        51.0670    6.3730    3.7530 H         1 MOL         0.0000 
     43 H12        50.7390    4.8450    2.9820 H         1 MOL         0.0000 
     44 H13        47.5640    7.7740    2.9740 H         1 MOL         0.0000 
     45 H14        49.0950    8.2790    3.6650 H         1 MOL         0.0000 
     46 H15        53.1560    6.8780    0.8640 H         1 MOL         0.0000 
     47 H16        53.0250    5.4470    1.8940 H         1 MOL         0.0000 
     48 H17        52.9840    7.0560    2.6180 H         1 MOL         0.0000 
     49 H18        49.7810    5.7620    0.0040 H         1 MOL         0.0000 
     50 H19        50.9410    4.5620    0.5860 H         1 MOL         0.0000 
     51 H20        51.4530    5.8730   -0.4760 H         1 MOL         0.0000 
     52 H21        48.8590    4.8000    4.8690 H         1 MOL         0.0000 
     53 H22        47.6660    6.1120    4.8830 H         1 MOL         0.0000 
     54 H23        49.3450    6.4380    5.3120 H         1 MOL         0.0000 
     55 H24        48.1340    5.4530    1.2600 H         1 MOL         0.0000 
     56 H25        47.0890    5.3190    2.6410 H         1 MOL         0.0000 
     57 H26        48.4150    4.1780    2.4520 H         1 MOL         0.0000 
@<TRIPOS>BOND
     1    1    2 1    
     2    1    5 1    
     3    2    3 2    
     4    2    6 1    
     5    3    4 1    
     6    3   16 1    
     7    4    5 2    
     8    4   15 1    
     9    5    9 1    
    10    6    7 ar   
    11    6    8 ar   
    12    9   10 ar   
    13    9   14 ar   
    14   10   11 ar   
    15   11   12 ar   
    16   11   21 1    
    17   12   13 ar   
    18   13   14 ar   
    19   16   17 1    
    20   17   18 1    
    21   18   19 ar   
    22   18   20 ar   
    23   21   22 1    
    24   22   23 1    
    25   22   27 1    
    26   23   24 1    
    27   24   25 1    
    28   24   28 1    
    29   24   29 1    
    30   25   26 1    
    31   26   27 1    
    32   26   30 1    
    33   26   31 1    
    34   10   32 1    
    35   12   33 1    
    36   13   34 1    
    37   14   35 1    
    38   17   36 1    
    39   17   37 1    
    40   21   38 1    
    41   22   39 1    
    42   23   40 1    
    43   23   41 1    
    44   25   42 1    
    45   25   43 1    
    46   27   44 1    
    47   27   45 1    
    48   28   46 1    
    49   28   47 1    
    50   28   48 1    
    51   29   49 1    
    52   29   50 1    
    53   29   51 1    
    54   30   52 1    
    55   30   53 1    
    56   30   54 1    
    57   31   55 1    
    58   31   56 1    
    59   31   57 1    
@<TRIPOS>SUBSTRUCTURE
     1 MOL         1 PERM              0 ****  ****    0 ROOT 
@<TRIPOS>NORMAL
@<TRIPOS>ALT_TYPE
MMFF94_ALT_TYPE_SET 
MMFF94 17 CR 22 CR 23 CR 24 CR 25 CR 26 CR 27 CR 28 CR 29 CR 30 CR 31 CR \
2 C5A 5 C5A 3 C5B 4 C5B 9 CB 10 CB 11 CB 12 CB 13 CB \
14 CB 6 CO2M 18 CO2M 32 HC 33 HC 34 HC 35 HC 36 HC 37 HC \
39 HC 40 HC 41 HC 42 HC 43 HC 44 HC 45 HC 46 HC 47 HC \
48 HC 49 HC 50 HC 51 HC 52 HC 53 HC 54 HC 55 HC 56 HC \
57 HC 38 HNCC 7 O2CM 8 O2CM 19 O2CM 20 O2CM 16 OC=C 21 NC=C \
1 STHI 15 BR 
