#	Name:			3kr8_ligand
#	Creating user name:	suminyi
#	Creation time:		Sun Sep 30 06:49:00 2018

#	Modifying user name:	suminyi
#	Modification time:	Sun Sep 30 06:49:01 2018

@<TRIPOS>MOLECULE
3kr8_ligand
   32    34     1     1     0
SMALL
MMFF94_CHARGES


@<TRIPOS>ATOM
      1 N1         37.9360  -11.1020  -12.9150 N.am      1 XAV        -0.4900 
      2 C2         38.7660  -11.7470  -12.1140 C.2       1 XAV         0.4238 
      3 N3         39.5630  -12.6850  -12.6420 N.2       1 XAV        -0.6210 
      4 C4         39.6250  -12.9790  -13.9210 C.2       1 XAV         0.0328 
      5 C5         38.8000  -12.3040  -14.8060 C.2       1 XAV        -0.1238 
      6 C6         37.9380  -11.3600  -14.2410 C.2       1 XAV         0.6156 
      7 O6         37.0810  -10.7290  -15.0730 O.2       1 XAV        -0.5700 
      8 FAB        39.7000  -11.3000   -5.7840 F         1 XAV        -0.3400 
      9 FAC        39.2930   -9.2680   -6.3280 F         1 XAV        -0.3400 
     10 FAD        37.6650  -10.6740   -5.9450 F         1 XAV        -0.3400 
     11 CAE        38.1960  -10.3860  -10.1950 C.ar      1 XAV        -0.1500 
     12 CAF        39.4980  -12.3470   -9.8340 C.ar      1 XAV        -0.1500 
     13 CAG        38.2420  -10.0680   -8.8360 C.ar      1 XAV        -0.1500 
     14 CAH        39.5090  -12.0450   -8.4620 C.ar      1 XAV        -0.1500 
     15 CAI        40.2190  -14.7320  -15.5870 C.3       1 XAV         0.2300 
     16 CAJ        40.6100  -14.0850  -14.2850 C.3       1 XAV         0.1382 
     17 CAK        38.7540  -12.5860  -16.2770 C.3       1 XAV         0.3682 
     18 SAN        40.2590  -13.4300  -16.8530 S.3       1 XAV        -0.4600 
     19 CAP        38.8140  -11.4980  -10.7290 C.ar      1 XAV         0.0862 
     20 CAQ        38.8850  -10.9060   -7.9620 C.ar      1 XAV        -0.1435 
     21 CAU        38.8830  -10.5260   -6.4610 C.3       1 XAV         1.1635 
     22 H1         37.3060  -10.4224  -12.5392 H         1 XAV         0.3700 
     23 H2         37.6493   -9.7286  -10.8614 H         1 XAV         0.1500 
     24 H3         40.0121  -13.2273  -10.2026 H         1 XAV         0.1500 
     25 H4         37.7709   -9.1616   -8.4733 H         1 XAV         0.1500 
     26 H5         40.0155  -12.7150   -7.7767 H         1 XAV         0.1500 
     27 H6         39.2064  -15.1549  -15.5107 H         1 XAV         0.0000 
     28 H7         40.9315  -15.5302  -15.8422 H         1 XAV         0.0000 
     29 H8         40.6115  -14.8447  -13.4895 H         1 XAV         0.0000 
     30 H9         41.6175  -13.6546  -14.3829 H         1 XAV         0.0000 
     31 H10        38.6507  -11.6342  -16.8186 H         1 XAV         0.0000 
     32 H11        37.8844  -13.2251  -16.4896 H         1 XAV         0.0000 
@<TRIPOS>BOND
     1    2    1 am   
     2    1    6 am   
     3    2    3 2    
     4   19    2 1    
     5    3    4 1    
     6    4    5 2    
     7    4   16 1    
     8    6    5 1    
     9    5   17 1    
    10    6    7 2    
    11   21    8 1    
    12   21    9 1    
    13   21   10 1    
    14   13   11 ar   
    15   11   19 ar   
    16   14   12 ar   
    17   12   19 ar   
    18   20   13 ar   
    19   20   14 ar   
    20   16   15 1    
    21   15   18 1    
    22   17   18 1    
    23   20   21 1    
    24    1   22 1    
    25   11   23 1    
    26   12   24 1    
    27   13   25 1    
    28   14   26 1    
    29   15   27 1    
    30   15   28 1    
    31   16   29 1    
    32   16   30 1    
    33   17   31 1    
    34   17   32 1    
@<TRIPOS>SUBSTRUCTURE
     1 XAV         1 PERM              0 ****  ****    0 ROOT 
@<TRIPOS>NORMAL
@<TRIPOS>ALT_TYPE
MMFF94_ALT_TYPE_SET 
MMFF94 15 CR 16 CR 17 CR 21 CR 11 CB 12 CB 13 CB 14 CB 19 CB 20 CB 6 C=ON \
2 C=N 4 C=C 5 C=C 23 HC 24 HC 25 HC 26 HC 27 HC 28 HC \
29 HC 30 HC 31 HC 32 HC 22 HNCN 7 O=CN 3 N=C 1 NC=O 18 S \
8 F 9 F 10 F 
