#	Name:			3kr8_ligand
#	Creating user name:	suminyi
#	Creation time:		Sun Sep 30 06:51:04 2018

#	Modifying user name:	suminyi
#	Modification time:	Sun Sep 30 06:51:04 2018

@<TRIPOS>MOLECULE
3kr8_ligand
   32    34     1     1     0
SMALL
MMFF94_CHARGES


@<TRIPOS>ATOM
      1 N1         38.0180  -11.2090  -12.7680 N.am      1 MOL        -0.4900 
      2 C2         38.8530  -11.9050  -11.9440 C.2       1 MOL         0.4238 
      3 N3         39.6310  -12.9130  -12.3820 N.2       1 MOL        -0.6210 
      4 C4         39.6400  -13.1920  -13.7420 C.2       1 MOL         0.0328 
      5 C5         38.8410  -12.4210  -14.5710 C.2       1 MOL        -0.1238 
      6 C6         37.9150  -11.4150  -14.0630 C.2       1 MOL         0.6156 
      7 O6         37.0640  -10.8190  -14.6820 O.2       1 MOL        -0.5700 
      8 FAB        39.8730  -11.3400   -5.6090 F         1 MOL        -0.3400 
      9 FAC        39.6270   -9.2670   -6.1760 F         1 MOL        -0.3400 
     10 FAD        37.8990  -10.4950   -5.7620 F         1 MOL        -0.3400 
     11 CAE        38.3240  -10.3420  -10.0620 C.ar      1 MOL        -0.1500 
     12 CAF        39.4940  -12.3970   -9.6240 C.ar      1 MOL        -0.1500 
     13 CAG        38.4010  -10.0150   -8.7100 C.ar      1 MOL        -0.1500 
     14 CAH        39.5730  -12.0710   -8.2780 C.ar      1 MOL        -0.1500 
     15 CAI        40.2250  -14.7870  -15.6210 C.3       1 MOL         0.2300 
     16 CAJ        40.5470  -14.3090  -14.2010 C.3       1 MOL         0.1382 
     17 CAK        38.7730  -12.5460  -16.0750 C.3       1 MOL         0.3682 
     18 SAN        40.2230  -13.3940  -16.7670 S.3       1 MOL        -0.4600 
     19 CAP        38.8730  -11.5410  -10.5390 C.ar      1 MOL         0.0862 
     20 CAQ        39.0260  -10.8770   -7.8070 C.ar      1 MOL        -0.1435 
     21 CAU        39.1160  -10.4970   -6.3360 C.3       1 MOL         1.1635 
     22 H1         37.3620  -10.5500  -12.3840 H         1 MOL         0.3700 
     23 H2         37.8700   -9.6260  -10.7390 H         1 MOL         0.1500 
     24 H3         39.9320  -13.3360   -9.9580 H         1 MOL         0.1500 
     25 H4         37.9920   -9.0690   -8.3610 H         1 MOL         0.1500 
     26 H5         40.0820  -12.7520   -7.6040 H         1 MOL         0.1500 
     27 H6         39.2470  -15.2730  -15.6420 H         1 MOL         0.0000 
     28 H7         40.9850  -15.5040  -15.9420 H         1 MOL         0.0000 
     29 H8         40.4800  -15.1510  -13.5160 H         1 MOL         0.0000 
     30 H9         41.5820  -13.9800  -14.1640 H         1 MOL         0.0000 
     31 H10        38.7160  -11.5560  -16.5410 H         1 MOL         0.0000 
     32 H11        37.8750  -13.0940  -16.3730 H         1 MOL         0.0000 
@<TRIPOS>BOND
     1    2    1 am   
     2    1    6 am   
     3    2    3 2    
     4   19    2 1    
     5    3    4 1    
     6    4    5 2    
     7    4   16 1    
     8    6    5 1    
     9    5   17 1    
    10    6    7 2    
    11   21    8 1    
    12   21    9 1    
    13   21   10 1    
    14   13   11 ar   
    15   11   19 ar   
    16   14   12 ar   
    17   12   19 ar   
    18   20   13 ar   
    19   20   14 ar   
    20   16   15 1    
    21   15   18 1    
    22   17   18 1    
    23   20   21 1    
    24    1   22 1    
    25   11   23 1    
    26   12   24 1    
    27   13   25 1    
    28   14   26 1    
    29   15   27 1    
    30   15   28 1    
    31   16   29 1    
    32   16   30 1    
    33   17   31 1    
    34   17   32 1    
@<TRIPOS>SUBSTRUCTURE
     1 MOL         1 PERM              0 ****  ****    0 ROOT 
@<TRIPOS>NORMAL
@<TRIPOS>ALT_TYPE
MMFF94_ALT_TYPE_SET 
MMFF94 15 CR 16 CR 17 CR 21 CR 11 CB 12 CB 13 CB 14 CB 19 CB 20 CB 6 C=ON \
2 C=N 4 C=C 5 C=C 23 HC 24 HC 25 HC 26 HC 27 HC 28 HC \
29 HC 30 HC 31 HC 32 HC 22 HNCN 7 O=CN 3 N=C 1 NC=O 18 S \
8 F 9 F 10 F 
