#	Name:			2xb8_ligand
#	Creating user name:	suminyi
#	Creation time:		Sun Sep 30 06:51:11 2018

#	Modifying user name:	suminyi
#	Modification time:	Sun Sep 30 06:51:11 2018

@<TRIPOS>MOLECULE
2xb8_ligand
   39    40     1     1     0
SMALL
MMFF94_CHARGES


@<TRIPOS>ATOM
      1 CAA        20.4120    1.3560   37.0360 C.3       1 MOL         0.2800 
      2 OAN        19.2680    1.4240   36.1520 O.3       1 MOL        -0.3625 
      3 CAR        18.0720    2.0040   36.5260 C.ar      1 MOL         0.0825 
      4 CAK        16.9350    1.6590   35.8120 C.ar      1 MOL        -0.1500 
      5 CAI        15.6910    2.1870   36.1390 C.ar      1 MOL        -0.1500 
      6 CAJ        17.9560    2.8870   37.5970 C.ar      1 MOL        -0.1500 
      7 CAH        16.7190    3.4500   37.9120 C.ar      1 MOL        -0.1500 
      8 CAQ        15.5810    3.0990   37.1840 C.ar      1 MOL        -0.1435 
      9 CAL        14.2140    3.6560   37.5400 C.3       1 MOL         0.1435 
     10 CAU        13.5820    2.8910   38.7320 C.3       1 MOL         0.0610 
     11 CAP        13.9370    3.5740   40.0550 C.2       1 MOL         0.4480 
     12 OAC        14.6840    4.5280   40.1540 O.2       1 MOL        -0.5700 
     13 CAT        13.3180    2.9300   41.2840 C.3       1 MOL         0.3410 
     14 OAF        13.5260    3.6350   42.5390 O.3       1 MOL        -0.6800 
     15 CAS        11.8050    2.7950   41.1030 C.3       1 MOL         0.2800 
     16 OAE        11.4240    2.1500   42.3050 O.3       1 MOL        -0.6800 
     17 CAM        11.4370    2.0050   39.8330 C.3       1 MOL         0.0000 
     18 CAV        12.0340    2.6900   38.5690 C.3       1 MOL         0.1740 
     19 CAO        11.6630    1.8610   37.2980 C.2       1 MOL         0.9060 
     20 OAD        11.7190    0.6470   37.3460 O.co2     1 MOL        -0.9000 
     21 OAB        11.4220    2.4240   36.2450 O.co2     1 MOL        -0.9000 
     22 OAG        11.4830    4.0180   38.5660 O.3       1 MOL        -0.6800 
     23 H1         21.2280    0.8450   36.5190 H         1 MOL         0.0000 
     24 H2         20.1420    0.7970   37.9360 H         1 MOL         0.0000 
     25 H3         20.7330    2.3650   37.3080 H         1 MOL         0.0000 
     26 H4         17.0220    0.9250   35.0240 H         1 MOL         0.1500 
     27 H5         14.8070    1.8700   35.5900 H         1 MOL         0.1500 
     28 H6         18.8230    3.1250   38.1960 H         1 MOL         0.1500 
     29 H7         16.6400    4.1480   38.7400 H         1 MOL         0.1500 
     30 H8         13.5720    3.5810   36.6680 H         1 MOL         0.0000 
     31 H9         14.2810    4.7260   37.7460 H         1 MOL         0.0000 
     32 H10        14.0270    1.8980   38.7530 H         1 MOL         0.0000 
     33 H11        13.7750    1.9410   41.3400 H         1 MOL         0.0000 
     34 H12        14.5150    3.9450   42.6000 H         1 MOL         0.4000 
     35 H13        11.3530    3.7930   41.0630 H         1 MOL         0.0000 
     36 H14        11.9860    2.7530   42.8730 H         1 MOL         0.4000 
     37 H15        10.3480    1.9670   39.7370 H         1 MOL         0.0000 
     38 H16        11.7940    0.9780   39.9150 H         1 MOL         0.0000 
     39 H17        10.9250    4.1850   37.7520 H         1 MOL         0.4000 
@<TRIPOS>BOND
     1    1    2 1    
     2    2    3 1    
     3    3    4 ar   
     4    3    6 ar   
     5    4    5 ar   
     6    5    8 ar   
     7    6    7 ar   
     8    7    8 ar   
     9    8    9 1    
    10    9   10 1    
    11   10   11 1    
    12   10   18 1    
    13   11   12 2    
    14   11   13 1    
    15   13   14 1    
    16   13   15 1    
    17   15   16 1    
    18   15   17 1    
    19   17   18 1    
    20   18   19 1    
    21   18   22 1    
    22   19   20 ar   
    23   19   21 ar   
    24    1   23 1    
    25    1   24 1    
    26    1   25 1    
    27    4   26 1    
    28    5   27 1    
    29    6   28 1    
    30    7   29 1    
    31    9   30 1    
    32    9   31 1    
    33   10   32 1    
    34   13   33 1    
    35   14   34 1    
    36   15   35 1    
    37   16   36 1    
    38   17   37 1    
    39   17   38 1    
    40   22   39 1    
@<TRIPOS>SUBSTRUCTURE
     1 MOL         1 PERM              0 ****  ****    0 ROOT 
@<TRIPOS>NORMAL
@<TRIPOS>ALT_TYPE
MMFF94_ALT_TYPE_SET 
MMFF94 1 CR 9 CR 10 CR 13 CR 15 CR 17 CR 18 CR 3 CB 4 CB 5 CB 6 CB 7 CB \
8 CB 19 CO2M 11 C=OR 23 HC 24 HC 25 HC 26 HC 27 HC 28 HC \
29 HC 30 HC 31 HC 32 HC 33 HC 35 HC 37 HC 38 HC 34 HOR \
36 HOR 39 HOR 20 O2CM 21 O2CM 12 O=CR 2 OC=C 14 OR 16 OR \
22 OR 
