#	Name:			1bzc_ligand
#	Creating user name:	suminyi
#	Creation time:		Sun Sep 30 06:50:56 2018

#	Modifying user name:	suminyi
#	Modification time:	Sun Sep 30 06:50:56 2018

@<TRIPOS>MOLECULE
1bzc_ligand
   43    44     1     1     0
SMALL
MMFF94_CHARGES


@<TRIPOS>ATOM
      1 P         -20.6320   58.5580   11.9870 P.3       1 MOL         1.1000 
      2 O1        -20.5550   57.3320   11.1530 O.co2     1 MOL        -1.0333 
      3 O2        -21.3590   59.5920   11.1930 O.co2     1 MOL        -1.0333 
      4 O3        -19.2720   59.1380   12.1030 O.co2     1 MOL        -1.0333 
      5 C1        -21.4140   58.3160   13.6650 C.3       1 MOL         0.8235 
      6 C2        -20.8560   56.0940   14.8470 C.ar      1 MOL        -0.1500 
      7 C3        -20.6100   57.4660   14.6670 C.ar      1 MOL        -0.1435 
      8 C4        -19.6520   58.0830   15.4820 C.ar      1 MOL        -0.1500 
      9 C5        -19.0020   57.3670   16.4840 C.ar      1 MOL        -0.1500 
     10 C6        -18.6990   55.3200   17.7450 C.ar      1 MOL        -0.1500 
     11 C7        -18.9470   53.9580   17.9560 C.ar      1 MOL         0.0862 
     12 C8        -19.8190   53.3050   17.0770 C.ar      1 MOL        -0.1500 
     13 C9        -20.4470   54.0110   16.0440 C.ar      1 MOL        -0.1500 
     14 C10       -20.1980   55.3710   15.8500 C.ar      1 MOL         0.0000 
     15 C11       -19.2940   56.0200   16.6910 C.ar      1 MOL         0.0000 
     16 C12       -18.2640   53.2780   19.1200 C.2       1 MOL         0.5438 
     17 O4        -17.6270   53.9300   19.9330 O.2       1 MOL        -0.5700 
     18 N1        -18.3220   51.9330   19.2650 N.am      1 MOL        -0.7301 
     19 C13       -17.5730   51.1690   20.3140 C.3       1 MOL         0.3611 
     20 C14       -16.0660   51.4780   20.4050 C.2       1 MOL         0.5690 
     21 N2        -15.6890   52.4140   21.2700 N.am      1 MOL        -0.8000 
     22 O5        -15.1800   50.8820   19.8090 O.2       1 MOL        -0.5700 
     23 C15       -17.7190   49.6210   20.2590 C.3       1 MOL         0.0000 
     24 C16       -18.8640   49.0060   21.1150 C.3       1 MOL        -0.1060 
     25 C17       -18.5120   47.6600   21.7510 C.2       1 MOL         0.9060 
     26 O6        -19.0050   47.3960   22.8240 O.co2     1 MOL        -0.9000 
     27 O7        -17.4840   47.0920   21.4150 O.co2     1 MOL        -0.9000 
     28 F1        -21.6260   59.5620   14.1460 F         1 MOL        -0.3400 
     29 F2        -22.6640   57.8590   13.4700 F         1 MOL        -0.3400 
     30 H1        -21.5920   55.5840   14.2300 H         1 MOL         0.1500 
     31 H2        -19.4400   59.1410   15.3590 H         1 MOL         0.1500 
     32 H3        -18.2750   57.8550   17.1180 H         1 MOL         0.1500 
     33 H4        -18.0190   55.8390   18.4130 H         1 MOL         0.1500 
     34 H5        -20.0560   52.2520   17.2110 H         1 MOL         0.1500 
     35 H6        -21.1520   53.4860   15.4050 H         1 MOL         0.1500 
     36 H7        -18.8510   51.4050   18.5700 H         1 MOL         0.3700 
     37 H8        -17.9760   51.4980   21.2750 H         1 MOL         0.0000 
     38 H9        -14.7330   52.6980   21.2460 H         1 MOL         0.3700 
     39 H10       -16.4190   53.0650   21.5340 H         1 MOL         0.3700 
     40 H11       -16.7900   49.2160   20.6550 H         1 MOL         0.0000 
     41 H12       -17.7800   49.2730   19.2300 H         1 MOL         0.0000 
     42 H13       -19.7570   48.8940   20.4960 H         1 MOL         0.0000 
     43 H14       -19.1280   49.6900   21.9240 H         1 MOL         0.0000 
@<TRIPOS>BOND
     1    1    5 1    
     2    1    4 ar   
     3    1    3 ar   
     4    1    2 ar   
     5    5    7 1    
     6    7    6 ar   
     7    7    8 ar   
     8    8    9 ar   
     9    9   15 ar   
    10   15   14 ar   
    11   15   10 ar   
    12   10   11 ar   
    13   11   16 1    
    14   11   12 ar   
    15   12   13 ar   
    16   13   14 ar   
    17   14    6 ar   
    18   16   18 am   
    19   16   17 2    
    20   18   19 1    
    21   19   23 1    
    22   19   20 1    
    23   20   22 2    
    24   20   21 am   
    25   23   24 1    
    26   24   25 1    
    27   25   27 ar   
    28   25   26 ar   
    29    5   29 1    
    30    5   28 1    
    31    6   30 1    
    32    8   31 1    
    33    9   32 1    
    34   10   33 1    
    35   12   34 1    
    36   13   35 1    
    37   18   36 1    
    38   19   37 1    
    39   21   38 1    
    40   21   39 1    
    41   23   40 1    
    42   23   41 1    
    43   24   42 1    
    44   24   43 1    
@<TRIPOS>SUBSTRUCTURE
     1 MOL         1 PERM              0 ****  ****    0 ROOT 
@<TRIPOS>NORMAL
@<TRIPOS>ALT_TYPE
MMFF94_ALT_TYPE_SET 
MMFF94 5 CR 19 CR 23 CR 24 CR 6 CB 7 CB 8 CB 9 CB 10 CB 11 CB 12 CB \
13 CB 14 CB 15 CB 25 CO2M 16 C=ON 20 C=ON 30 HC 31 HC \
32 HC 33 HC 34 HC 35 HC 37 HC 40 HC 41 HC 42 HC 43 HC \
36 HNCO 38 HNCO 39 HNCO 26 O2CM 27 O2CM 17 O=CN 22 O=CN \
2 O3P 3 O3P 4 O3P 18 NC=O 21 NC=O 1 PO3 28 F 29 F 
