#	Name:			1gpn_ligand
#	Creating user name:	suminyi
#	Creation time:		Sun Sep 30 06:51:10 2018

#	Modifying user name:	suminyi
#	Modification time:	Sun Sep 30 06:51:10 2018

@<TRIPOS>MOLECULE
1gpn_ligand
   40    43     1     1     0
SMALL
MMFF94_CHARGES


@<TRIPOS>ATOM
      1 C1          0.9430   68.6650   61.4490 C.2       1 MOL         0.6156 
      2 O1          0.2920   68.9830   60.4810 O.2       1 MOL        -0.5700 
      3 N1          2.2170   68.3120   61.2960 N.am      1 MOL        -0.5390 
      4 C2          0.4570   68.5800   62.8190 C.2       1 MOL        -0.1356 
      5 C3          1.2390   68.1760   63.8780 C.2       1 MOL        -0.1500 
      6 C4          2.6180   67.8150   63.5960 C.2       1 MOL        -0.1382 
      7 C5          3.0650   67.8530   62.2790 C.2       1 MOL        -0.0292 
      8 C6          4.4450   67.4160   61.8550 C.3       1 MOL         0.1382 
      9 C7          5.2170   66.7060   62.9820 C.3       1 MOL         0.1382 
     10 C8          4.7650   65.2650   63.1390 C.2       1 MOL        -0.2882 
     11 C9          5.2360   69.6080   65.6160 C.3       1 MOL         0.0000 
     12 C10         5.5400   68.8920   64.2910 C.3       1 MOL         0.0000 
     13 C11         5.0100   67.4330   64.3290 C.3       1 MOL         0.0000 
     14 C12         3.5050   67.3270   64.7410 C.3       1 MOL         0.6412 
     15 N2          3.2220   68.1210   65.9900 N.4       1 MOL        -0.9060 
     16 C13         3.1510   65.8300   64.9660 C.3       1 MOL         0.1382 
     17 C14         3.8620   64.8680   64.0290 C.2       1 MOL        -0.2764 
     18 C15         3.4980   63.4140   64.2320 C.3       1 MOL         0.1382 
     19 C90         3.7220   69.5430   65.8730 C.3       1 MOL         0.5030 
     20 H1          2.5700   68.4360   60.3650 H         1 MOL         0.3700 
     21 H2         -0.5850   68.8660   62.9370 H         1 MOL         0.1500 
     22 H3          0.8160   68.1270   64.8760 H         1 MOL         0.1500 
     23 H4          5.0210   68.2850   61.5210 H         1 MOL         0.0000 
     24 H5          4.4020   66.7590   60.9820 H         1 MOL         0.0000 
     25 H6          6.2760   66.7370   62.7090 H         1 MOL         0.0000 
     26 H7          5.2550   64.5420   62.5010 H         1 MOL         0.1500 
     27 H8          5.5660   70.6470   65.5450 H         1 MOL         0.0000 
     28 H9          5.7910   69.1410   66.4340 H         1 MOL         0.0000 
     29 H10         5.0810   69.4650   63.4800 H         1 MOL         0.0000 
     30 H11         6.6160   68.8890   64.1050 H         1 MOL         0.0000 
     31 H12         5.6040   66.9090   65.0830 H         1 MOL         0.0000 
     32 H13         3.6990   67.6660   66.7880 H         1 MOL         0.4500 
     33 H14         2.2100   68.1000   66.1900 H         1 MOL         0.4500 
     34 H15         2.0710   65.6820   64.8850 H         1 MOL         0.0000 
     35 H16         3.4150   65.5480   65.9870 H         1 MOL         0.0000 
     36 H17         4.0490   62.7550   63.5580 H         1 MOL         0.0000 
     37 H18         2.4300   63.2630   64.0750 H         1 MOL         0.0000 
     38 H19         3.7090   63.1070   65.2570 H         1 MOL         0.0000 
     39 H20         3.1940   69.9990   65.0300 H         1 MOL         0.0000 
     40 H21         3.4570   70.0850   66.7860 H         1 MOL         0.0000 
@<TRIPOS>BOND
     1    4    1 1    
     2    1    3 am   
     3    1    2 2    
     4    3    7 am   
     5    7    8 1    
     6    7    6 2    
     7    6   14 1    
     8    6    5 1    
     9    5    4 2    
    10   14   16 1    
    11   14   15 1    
    12   14   13 1    
    13   13   12 1    
    14   13    9 1    
    15    9   10 1    
    16    9    8 1    
    17   10   17 2    
    18   17   18 1    
    19   16   17 1    
    20   12   11 1    
    21   11   19 1    
    22   19   15 1    
    23    3   20 1    
    24    4   21 1    
    25    5   22 1    
    26    8   23 1    
    27    8   24 1    
    28    9   25 1    
    29   10   26 1    
    30   11   27 1    
    31   11   28 1    
    32   12   29 1    
    33   12   30 1    
    34   13   31 1    
    35   15   32 1    
    36   15   33 1    
    37   16   34 1    
    38   16   35 1    
    39   18   36 1    
    40   18   37 1    
    41   18   38 1    
    42   19   39 1    
    43   19   40 1    
@<TRIPOS>SUBSTRUCTURE
     1 MOL         1 PERM              0 ****  ****    0 ROOT 
@<TRIPOS>NORMAL
@<TRIPOS>ALT_TYPE
MMFF94_ALT_TYPE_SET 
MMFF94 8 CR 9 CR 11 CR 12 CR 13 CR 14 CR 16 CR 18 CR 19 CR 1 C=ON 4 C=C \
5 C=C 6 C=C 7 C=C 10 C=C 17 C=C 21 HC 22 HC 23 HC 24 HC \
25 HC 26 HC 27 HC 28 HC 29 HC 30 HC 31 HC 34 HC 35 HC \
36 HC 37 HC 38 HC 39 HC 40 HC 20 HNCC 32 HNR+ 33 HNR+ \
2 O=CN 15 NR+ 3 NC=O
