#	Name:			3cj4_ligand
#	Creating user name:	suminyi
#	Creation time:		Sun Sep 30 06:49:09 2018

#	Modifying user name:	suminyi
#	Modification time:	Sun Sep 30 06:49:09 2018

@<TRIPOS>MOLECULE
3cj4_ligand
   47    48     1     1     0
SMALL
MMFF94_CHARGES


@<TRIPOS>ATOM
      1 O3        -26.6480    3.2990  -15.9790 O.co2     1 SX5        -0.9000 
      2 C18       -27.4220    3.4190  -15.0400 C.2       1 SX5         0.9060 
      3 O4        -27.6680    2.3810  -14.2250 O.co2     1 SX5        -0.9000 
      4 C17       -28.1980    4.6340  -14.6220 C.3       1 SX5        -0.1060 
      5 C16       -27.5030    5.9140  -15.0710 C.3       1 SX5         0.0610 
      6 C15       -26.1950    6.1790  -14.3410 C.2       1 SX5         0.5690 
      7 O2        -25.8110    5.5300  -13.3640 O.2       1 SX5        -0.5700 
      8 N2        -25.5070    7.2270  -14.9180 N.am      1 SX5        -0.5470 
      9 C14       -24.2660    7.7140  -14.4510 C.ar      1 SX5         0.1170 
     10 C13       -23.1920    6.8500  -14.1950 C.ar      1 SX5        -0.1500 
     11 C12       -21.9800    7.3470  -13.7140 C.ar      1 SX5        -0.1500 
     12 C11       -21.8480    8.7180  -13.4860 C.ar      1 SX5         0.1110 
     13 BR1       -20.2040    9.3590  -12.8330 Br        1 SX5        -0.1110 
     14 C10       -22.8970    9.6040  -13.7270 C.ar      1 SX5        -0.1500 
     15 C9        -24.1150    9.1010  -14.1990 C.ar      1 SX5         0.0862 
     16 C8        -25.2110   10.0620  -14.4770 C.2       1 SX5         0.5438 
     17 O1        -25.0050   10.8270  -15.4200 O.2       1 SX5        -0.5700 
     18 N1        -26.4010   10.0850  -13.7410 N.am      1 SX5        -0.6602 
     19 C6        -26.5420    9.4540  -12.4120 C.3       1 SX5         0.3001 
     20 C4        -26.9360   10.3950  -11.2750 C.3       1 SX5         0.0000 
     21 C5        -27.2850    9.5940  -10.0200 C.3       1 SX5         0.0000 
     22 C3        -28.1020   11.3000  -11.6710 C.3       1 SX5         0.0000 
     23 C7        -27.3910   11.1340  -14.0540 C.3       1 SX5         0.3001 
     24 C2        -27.7100   12.0950  -12.9060 C.3       1 SX5         0.0000 
     25 C1        -28.8000   13.0900  -13.2970 C.3       1 SX5         0.0000 
     26 H1        -28.2899    4.6414  -13.5259 H         1 SX5         0.0000 
     27 H2        -29.2001    4.5926  -15.0738 H         1 SX5         0.0000 
     28 H3        -28.1811    6.7610  -14.8900 H         1 SX5         0.0000 
     29 H4        -27.2919    5.8369  -16.1478 H         1 SX5         0.0000 
     30 H5        -25.9128    7.6698  -15.7175 H         1 SX5         0.3700 
     31 H6        -23.3041    5.7865  -14.3723 H         1 SX5         0.1500 
     32 H7        -21.1508    6.6764  -13.5197 H         1 SX5         0.1500 
     33 H8        -22.7713   10.6663  -13.5515 H         1 SX5         0.1500 
     34 H9        -25.5776    8.9933  -12.1516 H         1 SX5         0.0000 
     35 H10       -27.3129    8.6730  -12.4878 H         1 SX5         0.0000 
     36 H11       -26.0708   11.0348  -11.0468 H         1 SX5         0.0000 
     37 H12       -27.5663   10.2842   -9.2110 H         1 SX5         0.0000 
     38 H13       -26.4124    9.0009   -9.7091 H         1 SX5         0.0000 
     39 H14       -28.1274    8.9208  -10.2371 H         1 SX5         0.0000 
     40 H15       -28.3313   11.9896  -10.8453 H         1 SX5         0.0000 
     41 H16       -28.9874   10.6860  -11.8927 H         1 SX5         0.0000 
     42 H17       -28.3269   10.6397  -14.3535 H         1 SX5         0.0000 
     43 H18       -27.0037   11.7267  -14.8958 H         1 SX5         0.0000 
     44 H19       -26.7995   12.6665  -12.6728 H         1 SX5         0.0000 
     45 H20       -29.0029   13.7628  -12.4508 H         1 SX5         0.0000 
     46 H21       -29.7180   12.5438  -13.5594 H         1 SX5         0.0000 
     47 H22       -28.4644   13.6803  -14.1624 H         1 SX5         0.0000 
@<TRIPOS>BOND
     1    1    2 ar   
     2    2    3 ar   
     3    2    4 1    
     4    4    5 1    
     5    5    6 1    
     6    6    7 2    
     7    6    8 am   
     8    8    9 1    
     9    9   10 ar   
    10    9   15 ar   
    11   10   11 ar   
    12   11   12 ar   
    13   12   13 1    
    14   12   14 ar   
    15   14   15 ar   
    16   15   16 1    
    17   16   17 2    
    18   16   18 am   
    19   18   19 1    
    20   18   23 1    
    21   19   20 1    
    22   20   21 1    
    23   20   22 1    
    24   22   24 1    
    25   23   24 1    
    26   24   25 1    
    27    4   26 1    
    28    4   27 1    
    29    5   28 1    
    30    5   29 1    
    31    8   30 1    
    32   10   31 1    
    33   11   32 1    
    34   14   33 1    
    35   19   34 1    
    36   19   35 1    
    37   20   36 1    
    38   21   37 1    
    39   21   38 1    
    40   21   39 1    
    41   22   40 1    
    42   22   41 1    
    43   23   42 1    
    44   23   43 1    
    45   24   44 1    
    46   25   45 1    
    47   25   46 1    
    48   25   47 1    
@<TRIPOS>SUBSTRUCTURE
     1 SX5         1 PERM              0 ****  ****    0 ROOT 
@<TRIPOS>NORMAL
@<TRIPOS>ALT_TYPE
MMFF94_ALT_TYPE_SET 
MMFF94 4 CR 5 CR 19 CR 20 CR 21 CR 22 CR 23 CR 24 CR 25 CR 9 CB 10 CB \
11 CB 12 CB 14 CB 15 CB 2 CO2M 6 C=ON 16 C=ON 26 HC 27 HC \
28 HC 29 HC 31 HC 32 HC 33 HC 34 HC 35 HC 36 HC 37 HC \
38 HC 39 HC 40 HC 41 HC 42 HC 43 HC 44 HC 45 HC 46 HC \
47 HC 30 HNCC 1 O2CM 3 O2CM 7 O=CN 17 O=CN 8 NC=O 18 NC=O \
13 BR 
