#	Name:			3cj4_ligand
#	Creating user name:	suminyi
#	Creation time:		Sun Sep 30 06:51:15 2018

#	Modifying user name:	suminyi
#	Modification time:	Sun Sep 30 06:51:15 2018

@<TRIPOS>MOLECULE
3cj4_ligand
   47    48     1     1     0
SMALL
MMFF94_CHARGES


@<TRIPOS>ATOM
      1 O3        -26.1590    5.8960  -16.7810 O.co2     1 MOL        -0.9000 
      2 C18       -26.8970    4.9270  -16.6860 C.2       1 MOL         0.9060 
      3 O4        -27.2470    4.3100  -17.6660 O.co2     1 MOL        -0.9000 
      4 C17       -27.5710    4.6280  -15.3460 C.3       1 MOL        -0.1060 
      5 C16       -27.6720    5.8420  -14.3750 C.3       1 MOL         0.0610 
      6 C15       -26.3470    6.2640  -13.7720 C.2       1 MOL         0.5690 
      7 O2        -25.9440    5.8790  -12.6900 O.2       1 MOL        -0.5700 
      8 N2        -25.6590    7.1520  -14.5060 N.am      1 MOL        -0.5470 
      9 C14       -24.4050    7.7360  -14.1870 C.ar      1 MOL         0.1170 
     10 C13       -23.3460    6.8550  -13.9820 C.ar      1 MOL        -0.1500 
     11 C12       -22.0780    7.3310  -13.6800 C.ar      1 MOL        -0.1500 
     12 C11       -21.8620    8.6990  -13.6310 C.ar      1 MOL         0.1110 
     13 Br1       -20.1920    9.3550  -13.0310 Br        1 MOL        -0.1110 
     14 C10       -22.8800    9.5880  -13.9560 C.ar      1 MOL        -0.1500 
     15 C9        -24.1770    9.1270  -14.2040 C.ar      1 MOL         0.0862 
     16 C8        -25.2310   10.1700  -14.4770 C.2       1 MOL         0.5438 
     17 O1        -24.9670   11.1220  -15.2020 O.2       1 MOL        -0.5700 
     18 N1        -26.4660   10.0710  -13.9070 N.am      1 MOL        -0.6602 
     19 C6        -26.7140    9.3500  -12.6330 C.3       1 MOL         0.3001 
     20 C4        -26.9700   10.3140  -11.4510 C.3       1 MOL         0.0000 
     21 C5        -27.2860    9.5170  -10.1680 C.3       1 MOL         0.0000 
     22 C3        -28.1020   11.3100  -11.7800 C.3       1 MOL         0.0000 
     23 C7        -27.5630   11.0080  -14.2290 C.3       1 MOL         0.3001 
     24 C2        -27.7830   12.0460  -13.1020 C.3       1 MOL         0.0000 
     25 C1        -28.9080   13.0350  -13.4630 C.3       1 MOL         0.0000 
     26 H1        -27.0520    3.8050  -14.8480 H         1 MOL         0.0000 
     27 H2        -28.5850    4.2710  -15.5450 H         1 MOL         0.0000 
     28 H3        -28.3490    5.6040  -13.5520 H         1 MOL         0.0000 
     29 H4        -28.1140    6.6870  -14.9070 H         1 MOL         0.0000 
     30 H5        -25.8820    7.0640  -15.4990 H         1 MOL         0.3700 
     31 H6        -23.5230    5.7850  -14.0390 H         1 MOL         0.1500 
     32 H7        -21.2720    6.6390  -13.4630 H         1 MOL         0.1500 
     33 H8        -22.6800   10.6540  -13.9190 H         1 MOL         0.1500 
     34 H9        -25.8610    8.7280  -12.3540 H         1 MOL         0.0000 
     35 H10       -27.5800    8.6940  -12.7610 H         1 MOL         0.0000 
     36 H11       -26.0640   10.8970  -11.2870 H         1 MOL         0.0000 
     37 H12       -27.4150   10.1890   -9.3160 H         1 MOL         0.0000 
     38 H13       -26.4720    8.8270   -9.9330 H         1 MOL         0.0000 
     39 H14       -28.2010    8.9330  -10.2870 H         1 MOL         0.0000 
     40 H15       -28.2050   12.0280  -10.9630 H         1 MOL         0.0000 
     41 H16       -29.0500   10.7710  -11.8710 H         1 MOL         0.0000 
     42 H17       -28.4820   10.4300  -14.3680 H         1 MOL         0.0000 
     43 H18       -27.3540   11.5300  -15.1640 H         1 MOL         0.0000 
     44 H19       -26.8600   12.6150  -12.9670 H         1 MOL         0.0000 
     45 H20       -29.0390   13.7680  -12.6640 H         1 MOL         0.0000 
     46 H21       -29.8550   12.5100  -13.6090 H         1 MOL         0.0000 
     47 H22       -28.6620   13.5720  -14.3820 H         1 MOL         0.0000 
@<TRIPOS>BOND
     1    1    2 ar   
     2    2    3 ar   
     3    2    4 1    
     4    4    5 1    
     5    5    6 1    
     6    6    7 2    
     7    6    8 am   
     8    8    9 1    
     9    9   10 ar   
    10    9   15 ar   
    11   10   11 ar   
    12   11   12 ar   
    13   12   13 1    
    14   12   14 ar   
    15   14   15 ar   
    16   15   16 1    
    17   16   17 2    
    18   16   18 am   
    19   18   19 1    
    20   18   23 1    
    21   19   20 1    
    22   20   21 1    
    23   20   22 1    
    24   22   24 1    
    25   23   24 1    
    26   24   25 1    
    27    4   26 1    
    28    4   27 1    
    29    5   28 1    
    30    5   29 1    
    31    8   30 1    
    32   10   31 1    
    33   11   32 1    
    34   14   33 1    
    35   19   34 1    
    36   19   35 1    
    37   20   36 1    
    38   21   37 1    
    39   21   38 1    
    40   21   39 1    
    41   22   40 1    
    42   22   41 1    
    43   23   42 1    
    44   23   43 1    
    45   24   44 1    
    46   25   45 1    
    47   25   46 1    
    48   25   47 1    
@<TRIPOS>SUBSTRUCTURE
     1 MOL         1 PERM              0 ****  ****    0 ROOT 
@<TRIPOS>NORMAL
@<TRIPOS>ALT_TYPE
MMFF94_ALT_TYPE_SET 
MMFF94 4 CR 5 CR 19 CR 20 CR 21 CR 22 CR 23 CR 24 CR 25 CR 9 CB 10 CB \
11 CB 12 CB 14 CB 15 CB 2 CO2M 6 C=ON 16 C=ON 26 HC 27 HC \
28 HC 29 HC 31 HC 32 HC 33 HC 34 HC 35 HC 36 HC 37 HC \
38 HC 39 HC 40 HC 41 HC 42 HC 43 HC 44 HC 45 HC 46 HC \
47 HC 30 HNCC 1 O2CM 3 O2CM 7 O=CN 17 O=CN 8 NC=O 18 NC=O \
13 BR 
