#	Name:			3up2_ligand
#	Creating user name:	suminyi
#	Creation time:		Sun Sep 30 06:50:58 2018

#	Modifying user name:	suminyi
#	Modification time:	Sun Sep 30 06:50:58 2018

@<TRIPOS>MOLECULE
3up2_ligand
   40    42     1     1     0
SMALL
MMFF94_CHARGES


@<TRIPOS>ATOM
      1 N01         3.7120   31.9280    8.8890 N.ar      1 MOL        -0.6200 
      2 N02         4.3260   30.9810    6.7890 N.ar      1 MOL        -0.6200 
      3 N03         5.6900   29.1500    6.6940 N.pl3     1 MOL        -0.6000 
      4 N04         3.1860   32.9620    6.9870 N.pl3     1 MOL        -0.6000 
      5 C05         4.3290   30.9080    9.5040 C.ar      1 MOL         0.1600 
      6 C06         3.7480   31.8870    7.5590 C.ar      1 MOL         0.7200 
      7 C07         4.9530   30.0120    7.4300 C.ar      1 MOL         0.4100 
      8 C08         4.9690   29.9130    8.7970 C.ar      1 MOL        -0.1500 
      9 C09         5.9670   29.1070    5.3520 C.ar      1 MOL         0.1000 
     10 C10         5.0300   29.4670    4.3830 C.ar      1 MOL        -0.1500 
     11 C11         5.3990   29.5680    3.0440 C.ar      1 MOL        -0.1500 
     12 C12         6.7010   29.2530    2.6600 C.ar      1 MOL        -0.1500 
     13 C13         7.6260   28.8240    3.6120 C.ar      1 MOL        -0.1500 
     14 C14         7.2570   28.7400    4.9560 C.ar      1 MOL         0.0825 
     15 C15         9.3410   29.1290    6.2260 C.3       1 MOL         1.3000 
     16 C16         2.7430   33.2710    5.7310 C.ar      1 MOL         0.1000 
     17 C17         1.7260   34.2130    5.6370 C.ar      1 MOL        -0.1500 
     18 C18         1.2180   34.5950    4.4050 C.ar      1 MOL        -0.1500 
     19 C19         1.7120   34.0210    3.2310 C.ar      1 MOL        -0.1790 
     20 C20         2.7560   33.0940    3.3150 C.ar      1 MOL        -0.1500 
     21 C21         3.2760   32.7330    4.5580 C.ar      1 MOL        -0.1500 
     22 C22         1.1180   34.4000    1.9100 C.2       1 MOL         0.9790 
     23 O23         1.5600   33.9390    0.8850 O.co2     1 MOL        -0.9000 
     24 O24         0.1270   35.1070    1.9120 O.co2     1 MOL        -0.9000 
     25 O25         8.1680   28.3360    5.9170 O.3       1 MOL        -0.3625 
     26 F26         9.0600   30.4410    6.2690 F         1 MOL        -0.3400 
     27 F27        10.3210   28.9410    5.3340 F         1 MOL        -0.3400 
     28 F28         9.8070   28.7830    7.4340 F         1 MOL        -0.3400 
     29 H1          6.4230   28.7390    7.2470 H         1 MOL         0.4000 
     30 H2          3.0220   33.6720    7.6930 H         1 MOL         0.4000 
     31 H3          4.3190   30.9140   10.5860 H         1 MOL         0.1500 
     32 H4          5.4940   29.1180    9.3120 H         1 MOL         0.1500 
     33 H5          4.0200   29.7230    4.6820 H         1 MOL         0.1500 
     34 H6          4.6790   29.9340    2.3130 H         1 MOL         0.1500 
     35 H7          7.0040   29.3670    1.6220 H         1 MOL         0.1500 
     36 H8          8.6450   28.5910    3.3100 H         1 MOL         0.1500 
     37 H9          1.3240   34.6740    6.5310 H         1 MOL         0.1500 
     38 H10         0.4460   35.3630    4.3670 H         1 MOL         0.1500 
     39 H11         3.1590   32.6450    2.4070 H         1 MOL         0.1500 
     40 H12         4.1180   32.0530    4.5940 H         1 MOL         0.1500 
@<TRIPOS>BOND
     1    1    5 ar   
     2    1    6 ar   
     3    6    2 ar   
     4    2    7 ar   
     5    7    3 1    
     6    3    9 1    
     7    6    4 1    
     8    4   16 1    
     9    5    8 ar   
    10    7    8 ar   
    11    9   10 ar   
    12    9   14 ar   
    13   10   11 ar   
    14   11   12 ar   
    15   12   13 ar   
    16   13   14 ar   
    17   14   25 1    
    18   25   15 1    
    19   15   26 1    
    20   15   27 1    
    21   15   28 1    
    22   16   17 ar   
    23   16   21 ar   
    24   17   18 ar   
    25   18   19 ar   
    26   19   20 ar   
    27   19   22 1    
    28   20   21 ar   
    29   22   23 ar   
    30   22   24 ar   
    31    3   29 1    
    32    4   30 1    
    33    5   31 1    
    34    8   32 1    
    35   10   33 1    
    36   11   34 1    
    37   12   35 1    
    38   13   36 1    
    39   17   37 1    
    40   18   38 1    
    41   20   39 1    
    42   21   40 1    
@<TRIPOS>SUBSTRUCTURE
     1 MOL         1 PERM              0 ****  ****    0 ROOT 
@<TRIPOS>NORMAL
@<TRIPOS>ALT_TYPE
MMFF94_ALT_TYPE_SET 
MMFF94 15 CR 5 CB 6 CB 7 CB 8 CB 9 CB 10 CB 11 CB 12 CB 13 CB 14 CB \
16 CB 17 CB 18 CB 19 CB 20 CB 21 CB 22 CO2M 31 HC 32 HC \
33 HC 34 HC 35 HC 36 HC 37 HC 38 HC 39 HC 40 HC 29 HNCC \
30 HNCC 23 O2CM 24 O2CM 25 OC=C 1 NPYD 2 NPYD 3 NC=N \
4 NC=N 26 F 27 F 28 F
