#	Name:			3up2_ligand
#	Creating user name:	suminyi
#	Creation time:		Sun Sep 30 06:48:38 2018

#	Modifying user name:	suminyi
#	Modification time:	Sun Sep 30 06:48:38 2018

@<TRIPOS>MOLECULE
3up2_ligand
   40    42     1     1     0
SMALL
MMFF94_CHARGES


@<TRIPOS>ATOM
      1 N01         3.8470   31.8080    9.1560 N.ar      1 MOL        -0.6200 
      2 N02         4.5020   30.9520    7.0580 N.ar      1 MOL        -0.6200 
      3 N03         5.7040   28.8430    6.8710 N.pl3     1 MOL        -0.6000 
      4 N04         3.3000   33.0480    7.2230 N.pl3     1 MOL        -0.6000 
      5 C05         4.4050   30.7600    9.8000 C.ar      1 MOL         0.1600 
      6 C06         3.8970   31.8900    7.8130 C.ar      1 MOL         0.7200 
      7 C07         5.0730   29.8730    7.6580 C.ar      1 MOL         0.4100 
      8 C08         5.0290   29.7550    9.0540 C.ar      1 MOL        -0.1500 
      9 C09         5.9350   29.0050    5.4600 C.ar      1 MOL         0.1000 
     10 C10         4.8940   29.3620    4.6080 C.ar      1 MOL        -0.1500 
     11 C11         5.1180   29.5190    3.2460 C.ar      1 MOL        -0.1500 
     12 C12         6.3870   29.3060    2.7280 C.ar      1 MOL        -0.1500 
     13 C13         7.4250   28.9340    3.5740 C.ar      1 MOL        -0.1500 
     14 C14         7.2090   28.7920    4.9450 C.ar      1 MOL         0.0825 
     15 C15         9.3310   29.1990    6.0800 C.3       1 MOL         1.3000 
     16 C16         2.9390   33.2330    5.8440 C.ar      1 MOL         0.1000 
     17 C17         1.8600   34.0660    5.5690 C.ar      1 MOL        -0.1500 
     18 C18         1.4770   34.3250    4.2630 C.ar      1 MOL        -0.1500 
     19 C19         2.1840   33.7280    3.2170 C.ar      1 MOL        -0.1790 
     20 C20         3.2620   32.8820    3.4680 C.ar      1 MOL        -0.1500 
     21 C21         3.6470   32.6570    4.7940 C.ar      1 MOL        -0.1500 
     22 C22         1.7230   34.0080    1.8330 C.2       1 MOL         0.9790 
     23 O23         2.5500   34.0330    0.8680 O.co2     1 MOL        -0.9000 
     24 O24         0.4820   34.2340    1.6720 O.co2     1 MOL        -0.9000 
     25 O25         8.2480   28.3950    5.7790 O.3       1 MOL        -0.3625 
     26 F26         8.9500   30.4610    6.3330 F         1 MOL        -0.3400 
     27 F27        10.1490   29.1930    5.0330 F         1 MOL        -0.3400 
     28 F28         9.9790   28.6740    7.1290 F         1 MOL        -0.3400 
     29 H1          5.9969   27.9689    7.3304 H         1 MOL         0.4000 
     30 H2          3.1074   33.8369    7.8565 H         1 MOL         0.4000 
     31 H3          4.3696   30.6987   10.8817 H         1 MOL         0.1500 
     32 H4          5.4719   28.8977    9.5479 H         1 MOL         0.1500 
     33 H5          3.8999   29.5189    5.0107 H         1 MOL         0.1500 
     34 H6          4.3041   29.8069    2.5905 H         1 MOL         0.1500 
     35 H7          6.5686   29.4293    1.6664 H         1 MOL         0.1500 
     36 H8          8.4122   28.7524    3.1646 H         1 MOL         0.1500 
     37 H9          1.3114   34.5186    6.3871 H         1 MOL         0.1500 
     38 H10         0.6400   34.9820    4.0559 H         1 MOL         0.1500 
     39 H11         3.7927   32.4068    2.6509 H         1 MOL         0.1500 
     40 H12         4.5045   32.0284    5.0052 H         1 MOL         0.1500 
@<TRIPOS>BOND
     1    1    5 ar   
     2    1    6 ar   
     3    6    2 ar   
     4    2    7 ar   
     5    7    3 1    
     6    3    9 1    
     7    6    4 1    
     8    4   16 1    
     9    5    8 ar   
    10    7    8 ar   
    11    9   10 ar   
    12    9   14 ar   
    13   10   11 ar   
    14   11   12 ar   
    15   12   13 ar   
    16   13   14 ar   
    17   14   25 1    
    18   25   15 1    
    19   15   26 1    
    20   15   27 1    
    21   15   28 1    
    22   16   17 ar   
    23   16   21 ar   
    24   17   18 ar   
    25   18   19 ar   
    26   19   20 ar   
    27   19   22 1    
    28   20   21 ar   
    29   22   23 ar   
    30   22   24 ar   
    31    3   29 1    
    32    4   30 1    
    33    5   31 1    
    34    8   32 1    
    35   10   33 1    
    36   11   34 1    
    37   12   35 1    
    38   13   36 1    
    39   17   37 1    
    40   18   38 1    
    41   20   39 1    
    42   21   40 1    
@<TRIPOS>SUBSTRUCTURE
     1 MOL         1 PERM              0 ****  ****    0 ROOT 
@<TRIPOS>NORMAL
@<TRIPOS>ALT_TYPE
MMFF94_ALT_TYPE_SET 
MMFF94 15 CR 5 CB 6 CB 7 CB 8 CB 9 CB 10 CB 11 CB 12 CB 13 CB 14 CB \
16 CB 17 CB 18 CB 19 CB 20 CB 21 CB 22 CO2M 31 HC 32 HC \
33 HC 34 HC 35 HC 36 HC 37 HC 38 HC 39 HC 40 HC 29 HNCC \
30 HNCC 23 O2CM 24 O2CM 25 OC=C 1 NPYD 2 NPYD 3 NC=N \
4 NC=N 26 F 27 F 28 F
