#	Name:			3f3c_ligand
#	Creating user name:	suminyi
#	Creation time:		Sun Sep 30 06:51:14 2018

#	Modifying user name:	suminyi
#	Modification time:	Sun Sep 30 06:51:14 2018

@<TRIPOS>MOLECULE
3f3c_ligand
   23    23     1     1     0
SMALL
MMFF94_CHARGES


@<TRIPOS>ATOM
      1 N          25.8340   32.2300   19.0760 N.4       1 MOL        -0.8530 
      2 CA         27.1670   31.4830   19.0800 C.3       1 MOL         0.3970 
      3 C          27.1770   30.1000   18.4530 C.2       1 MOL         0.9060 
      4 O          28.2470   29.5320   18.2820 O.co2     1 MOL        -0.9000 
      5 OXT        26.1160   29.5330   18.4460 O.co2     1 MOL        -0.9000 
      6 CB         27.7110   31.3870   20.5220 C.3       1 MOL         0.1435 
      7 CG         27.9480   32.7690   21.0850 C.ar      1 MOL        -0.1435 
      8 CD1        28.6220   33.6880   20.2900 C.ar      1 MOL        -0.1500 
      9 CD2        27.4880   33.1500   22.3470 C.ar      1 MOL        -0.1500 
     10 CE1        28.8600   34.9710   20.7380 C.ar      1 MOL        -0.1500 
     11 CE2        27.7130   34.4520   22.7950 C.ar      1 MOL        -0.1500 
     12 CZ         28.3930   35.3530   21.9810 C.ar      1 MOL         0.1900 
     13 F          28.7240   36.5630   22.4250 F         1 MOL        -0.1900 
     14 H1         25.9160   33.2120   19.4190 H         1 MOL         0.4500 
     15 H2         25.1410   31.7210   19.6590 H         1 MOL         0.4500 
     16 H3         25.4240   32.2600   18.1050 H         1 MOL         0.4500 
     17 H4         27.8410   32.0660   18.4520 H         1 MOL         0.0000 
     18 H5         28.6590   30.8450   20.5290 H         1 MOL         0.0000 
     19 H6         27.0090   30.8260   21.1450 H         1 MOL         0.0000 
     20 H7         28.9280   33.4330   19.2850 H         1 MOL         0.1500 
     21 H8         26.9510   32.4420   22.9750 H         1 MOL         0.1500 
     22 H9         29.3850   35.6710   20.0990 H         1 MOL         0.1500 
     23 H10        27.3760   34.7630   23.7750 H         1 MOL         0.1500 
@<TRIPOS>BOND
     1    1    2 1    
     2    2    3 1    
     3    2    6 1    
     4    3    4 ar   
     5    3    5 ar   
     6    6    7 1    
     7    7    8 ar   
     8    7    9 ar   
     9    8   10 ar   
    10    9   11 ar   
    11   10   12 ar   
    12   11   12 ar   
    13   12   13 1    
    14    1   14 1    
    15    1   15 1    
    16    1   16 1    
    17    2   17 1    
    18    6   18 1    
    19    6   19 1    
    20    8   20 1    
    21    9   21 1    
    22   10   22 1    
    23   11   23 1    
@<TRIPOS>SUBSTRUCTURE
     1 MOL         1 PERM              0 ****  ****    0 ROOT 
@<TRIPOS>NORMAL
@<TRIPOS>ALT_TYPE
MMFF94_ALT_TYPE_SET 
MMFF94 2 CR 6 CR 7 CB 8 CB 9 CB 10 CB 11 CB 12 CB 3 CO2M 17 HC 18 HC \
19 HC 20 HC 21 HC 22 HC 23 HC 14 HNR+ 15 HNR+ 16 HNR+ \
4 O2CM 5 O2CM 1 NR+ 13 F 
