#	Name:			3f3c_ligand
#	Creating user name:	suminyi
#	Creation time:		Sun Sep 30 06:48:55 2018

#	Modifying user name:	suminyi
#	Modification time:	Sun Sep 30 06:48:55 2018

@<TRIPOS>MOLECULE
3f3c_ligand
   23    23     1     1     0
SMALL
MMFF94_CHARGES


@<TRIPOS>ATOM
      1 N          25.9520   32.2700   19.1620 N.4       1 PFF        -0.8530 
      2 CA         27.2540   31.6260   19.1260 C.3       1 PFF         0.3970 
      3 C          27.2000   30.3180   18.3880 C.2       1 PFF         0.9060 
      4 O          28.2740   29.6910   18.1950 O.co2     1 PFF        -0.9000 
      5 OXT        26.0890   29.9050   18.0060 O.co2     1 PFF        -0.9000 
      6 CB         27.7240   31.3570   20.5520 C.3       1 PFF         0.1435 
      7 CG         28.0240   32.6860   21.1950 C.ar      1 PFF        -0.1435 
      8 CD1        28.6550   33.6630   20.4380 C.ar      1 PFF        -0.1500 
      9 CD2        27.6660   32.9360   22.5200 C.ar      1 PFF        -0.1500 
     10 CE1        28.9370   34.8970   20.9980 C.ar      1 PFF        -0.1500 
     11 CE2        27.9470   34.1790   23.0870 C.ar      1 PFF        -0.1500 
     12 CZ         28.5800   35.1500   22.3190 C.ar      1 PFF         0.1900 
     13 F          28.8640   36.3490   22.8450 F         1 PFF        -0.1900 
     14 H1         26.0223   33.1421   19.6625 H         1 PFF         0.4500 
     15 H2         25.2918   31.6674   19.6280 H         1 PFF         0.4500 
     16 H3         25.6387   32.4473   18.2205 H         1 PFF         0.4500 
     17 H4         27.9688   32.2939   18.6231 H         1 PFF         0.0000 
     18 H5         28.6314   30.7354   20.5362 H         1 PFF         0.0000 
     19 H6         26.9340   30.8385   21.1151 H         1 PFF         0.0000 
     20 H7         28.9269   33.4598   19.4085 H         1 PFF         0.1500 
     21 H8         27.1724   32.1688   23.1054 H         1 PFF         0.1500 
     22 H9         29.4329   35.6617   20.4111 H         1 PFF         0.1500 
     23 H10        27.6747   34.3859   24.1157 H         1 PFF         0.1500 
@<TRIPOS>BOND
     1    1    2 1    
     2    2    3 1    
     3    2    6 1    
     4    3    4 ar   
     5    3    5 ar   
     6    6    7 1    
     7    7    8 ar   
     8    7    9 ar   
     9    8   10 ar   
    10    9   11 ar   
    11   10   12 ar   
    12   11   12 ar   
    13   12   13 1    
    14    1   14 1    
    15    1   15 1    
    16    1   16 1    
    17    2   17 1    
    18    6   18 1    
    19    6   19 1    
    20    8   20 1    
    21    9   21 1    
    22   10   22 1    
    23   11   23 1    
@<TRIPOS>SUBSTRUCTURE
     1 PFF         1 PERM              0 ****  ****    0 ROOT 
@<TRIPOS>NORMAL
@<TRIPOS>ALT_TYPE
MMFF94_ALT_TYPE_SET 
MMFF94 2 CR 6 CR 7 CB 8 CB 9 CB 10 CB 11 CB 12 CB 3 CO2M 17 HC 18 HC \
19 HC 20 HC 21 HC 22 HC 23 HC 14 HNR+ 15 HNR+ 16 HNR+ \
4 O2CM 5 O2CM 1 NR+ 13 F 
