#	Name:			1o0h_ligand
#	Creating user name:	suminyi
#	Creation time:		Sun Sep 30 06:51:02 2018

#	Modifying user name:	suminyi
#	Modification time:	Sun Sep 30 06:51:02 2018

@<TRIPOS>MOLECULE
1o0h_ligand
   39    41     1     1     0
SMALL
MMFF94_CHARGES


@<TRIPOS>ATOM
      1 PB         36.4160    3.9070   13.0260 P.3       1 MOL         1.3712 
      2 O1B        35.0120    3.5870   13.3580 O.2       1 MOL        -1.0333 
      3 O2B        36.6920    3.1090   11.8170 O.3       1 MOL        -1.0333 
      4 O3B        37.3730    3.5750   14.0790 O.3       1 MOL        -1.0333 
      5 PA         37.6300    6.2170   12.9310 P.3       1 MOL         1.4424 
      6 O1A        37.5640    7.2840   11.8980 O.2       1 MOL        -0.9500 
      7 O2A        38.9640    5.6240   12.7740 O.3       1 MOL        -0.9500 
      8 O3A        36.3910    5.3830   12.5970 O.3       1 MOL        -0.5424 
      9 O5         37.2760    7.0420   14.2440 O.3       1 MOL        -0.5512 
     10 C5         36.8260    6.3930   15.4570 C.3       1 MOL         0.2800 
     11 C4         36.6420    7.5090   16.5210 C.3       1 MOL         0.2800 
     12 O4         35.8270    7.0670   17.6420 O.3       1 MOL        -0.5600 
     13 C3         37.9870    7.9710   17.1170 C.3       1 MOL         0.2800 
     14 O3         38.1020    9.4000   17.0840 O.3       1 MOL        -0.6800 
     15 C2         37.9370    7.5510   18.6000 C.3       1 MOL         0.2800 
     16 O2         38.5280    8.5740   19.4430 O.3       1 MOL        -0.6800 
     17 C1         36.4340    7.3890   18.9080 C.3       1 MOL         0.5356 
     18 N9         36.0690    6.4150   19.9430 N.pl3     1 MOL         0.0476 
     19 C8         35.1220    6.6220   20.9290 C.2       1 MOL         0.0365 
     20 N7         35.0090    5.5840   21.7900 N.2       1 MOL        -0.5653 
     21 C7         35.8950    4.7090   21.2660 C.ar      1 MOL         0.2272 
     22 C6         36.2370    3.4300   21.7020 C.ar      1 MOL         0.4100 
     23 N6         35.7000    2.8390   22.7790 N.pl3     1 MOL        -0.9000 
     24 N1         37.1570    2.6710   21.1030 N.ar      1 MOL        -0.6200 
     25 C10        37.7070    3.2300   20.0080 C.ar      1 MOL         0.4700 
     26 N3         37.4930    4.4670   19.5140 N.ar      1 MOL        -0.5670 
     27 C9         36.5470    5.1800   20.1580 C.ar      1 MOL         0.1054 
     28 H1         37.5600    5.6530   15.7880 H         1 MOL         0.0000 
     29 H2         35.8710    5.9000   15.2600 H         1 MOL         0.0000 
     30 H3         36.1280    8.3560   16.0610 H         1 MOL         0.0000 
     31 H4         38.8360    7.5030   16.6090 H         1 MOL         0.0000 
     32 H5         38.3240    9.5280   18.0540 H         1 MOL         0.4000 
     33 H6         38.4470    6.5900   18.7120 H         1 MOL         0.0000 
     34 H7         38.2880    8.3350   20.3690 H         1 MOL         0.4000 
     35 H8         36.0140    8.3590   19.2180 H         1 MOL         0.0000 
     36 H9         34.5430    7.5230   20.9710 H         1 MOL         0.1500 
     37 H10        36.2670    2.1130   23.1810 H         1 MOL         0.4000 
     38 H11        35.1070    3.4250   23.3570 H         1 MOL         0.4000 
     39 H12        38.4520    2.6330   19.4920 H         1 MOL         0.1500 
@<TRIPOS>BOND
     1    1    2 ar   
     2    1    3 ar   
     3    1    4 ar   
     4    8    1 1    
     5    5    6 ar   
     6    5    7 ar   
     7    5    8 1    
     8    5    9 1    
     9    9   10 1    
    10   10   11 1    
    11   11   12 1    
    12   11   13 1    
    13   12   17 1    
    14   13   14 1    
    15   13   15 1    
    16   15   16 1    
    17   15   17 1    
    18   17   18 1    
    19   18   19 1    
    20   18   27 1    
    21   19   20 2    
    22   20   21 1    
    23   21   22 ar   
    24   21   27 ar   
    25   22   23 1    
    26   22   24 ar   
    27   24   25 ar   
    28   25   26 ar   
    29   26   27 ar   
    30   10   28 1    
    31   10   29 1    
    32   11   30 1    
    33   13   31 1    
    34   14   32 1    
    35   15   33 1    
    36   16   34 1    
    37   17   35 1    
    38   19   36 1    
    39   23   37 1    
    40   23   38 1    
    41   25   39 1    
@<TRIPOS>SUBSTRUCTURE
     1 MOL         1 PERM              0 ****  ****    0 ROOT 
@<TRIPOS>NORMAL
@<TRIPOS>ALT_TYPE
MMFF94_ALT_TYPE_SET 
MMFF94 10 CR 11 CR 13 CR 15 CR 17 CR 19 C5A 27 C5A 21 C5B 22 CB 25 CB \
28 HC 29 HC 30 HC 31 HC 33 HC 35 HC 36 HC 39 HC 37 HNCC \
38 HNCC 32 HOR 34 HOR 2 O3P 3 O3P 4 O3P 6 O2P 7 O2P \
8 OPO3 9 OPO3 12 OR 14 OR 16 OR 24 NPYD 26 NPYD 18 NPYL \
20 N5B 23 NC=N 1 PO4 5 PO4 
