#	Name:			4f09_ligand
#	Creating user name:	suminyi
#	Creation time:		Sun Sep 30 06:51:10 2018

#	Modifying user name:	suminyi
#	Modification time:	Sun Sep 30 06:51:10 2018

@<TRIPOS>MOLECULE
4f09_ligand
   37    40     1     1     0
SMALL
MMFF94_CHARGES


@<TRIPOS>ATOM
      1 C1         17.0020    6.2490   12.4460 C.3       1 MOL         0.1800 
      2 C2         16.5570    7.6760   12.3030 C.2       1 MOL         0.0065 
      3 N3         17.3560    8.6990   12.6670 N.2       1 MOL        -0.5653 
      4 C4         16.6190    9.7790   12.4060 C.ar      1 MOL         0.2272 
      5 C5         16.9910   11.1120   12.6110 C.ar      1 MOL         0.1600 
      6 N6         16.1660   12.1470   12.3030 N.ar      1 MOL        -0.5670 
      7 C7         14.9650   11.8210   11.7830 C.ar      1 MOL         0.1054 
      8 C8         14.5500   10.5250   11.5330 C.ar      1 MOL         0.0000 
      9 C9         15.4030    9.4610   11.8670 C.ar      1 MOL        -0.1516 
     10 N10        15.3190    8.1060   11.8050 N.pl3     1 MOL         0.0476 
     11 C11        14.2350    7.2180   11.3320 C.3       1 MOL         0.2556 
     12 C12        13.9930    7.3460    9.8110 C.3       1 MOL         0.0000 
     13 C13        12.8080    6.4770    9.3380 C.3       1 MOL         0.5030 
     14 N14        11.5390    6.7350   10.1260 N.4       1 MOL        -0.9060 
     15 C15        11.7810    6.4480   11.5900 C.3       1 MOL         0.5030 
     16 C16        12.9250    7.3030   12.1650 C.3       1 MOL         0.0000 
     17 C17        13.2380   10.5880   10.9710 C.2       1 MOL        -0.1500 
     18 C18        12.9120   11.9290   10.9200 C.2       1 MOL        -0.3016 
     19 N19        13.9780   12.6610   11.4310 N.pl3     1 MOL         0.0332 
     20 H1         17.9950    6.2000   12.9020 H         1 MOL         0.0000 
     21 H2         17.0680    5.7610   11.4730 H         1 MOL         0.0000 
     22 H3         16.3190    5.6830   13.0780 H         1 MOL         0.0000 
     23 H4         17.9650   11.3700   13.0190 H         1 MOL         0.1500 
     24 H5         14.5880    6.1930   11.4770 H         1 MOL         0.0000 
     25 H6         14.9040    7.0400    9.2890 H         1 MOL         0.0000 
     26 H7         13.8280    8.3870    9.5420 H         1 MOL         0.0000 
     27 H8         13.0630    5.4190    9.4630 H         1 MOL         0.0000 
     28 H9         12.6020    6.6570    8.2780 H         1 MOL         0.0000 
     29 H10        10.7340    6.1660    9.7820 H         1 MOL         0.4500 
     30 H11        11.1820    7.7070    9.9960 H         1 MOL         0.4500 
     31 H12        12.0210    5.3840   11.6960 H         1 MOL         0.0000 
     32 H13        10.8500    6.6390   12.1360 H         1 MOL         0.0000 
     33 H14        12.5820    8.3340   12.2400 H         1 MOL         0.0000 
     34 H15        13.1280    6.9640   13.1840 H         1 MOL         0.0000 
     35 H16        12.5850    9.7870   10.6550 H         1 MOL         0.1500 
     36 H17        12.0040   12.4190   10.5830 H         1 MOL         0.1500 
     37 H18        14.0340   13.6720   11.5570 H         1 MOL         0.2700 
@<TRIPOS>BOND
     1    1    2 1    
     2    2    3 2    
     3    2   10 1    
     4    3    4 1    
     5    4    5 ar   
     6    4    9 ar   
     7    5    6 ar   
     8    6    7 ar   
     9    7    8 ar   
    10    7   19 1    
    11    8    9 ar   
    12    8   17 1    
    13    9   10 1    
    14   10   11 1    
    15   11   12 1    
    16   11   16 1    
    17   12   13 1    
    18   13   14 1    
    19   14   15 1    
    20   15   16 1    
    21   17   18 2    
    22   18   19 1    
    23    1   20 1    
    24    1   21 1    
    25    1   22 1    
    26    5   23 1    
    27   11   24 1    
    28   12   25 1    
    29   12   26 1    
    30   13   27 1    
    31   13   28 1    
    32   14   29 1    
    33   14   30 1    
    34   15   31 1    
    35   15   32 1    
    36   16   33 1    
    37   16   34 1    
    38   17   35 1    
    39   18   36 1    
    40   19   37 1    
@<TRIPOS>SUBSTRUCTURE
     1 MOL         1 PERM              0 ****  ****    0 ROOT 
@<TRIPOS>NORMAL
@<TRIPOS>ALT_TYPE
MMFF94_ALT_TYPE_SET 
MMFF94 1 CR 11 CR 12 CR 13 CR 15 CR 16 CR 2 C5A 18 C5A 9 C5A 7 C5A 17 C5B \
4 C5B 8 C5B 5 CB 20 HC 21 HC 22 HC 23 HC 24 HC 25 HC \
26 HC 27 HC 28 HC 31 HC 32 HC 33 HC 34 HC 35 HC 36 HC \
37 HPYL 29 HNR+ 30 HNR+ 6 NPYD 10 NPYL 19 NPYL 3 N5B \
14 NR+ 
