#	Name:			4f09_ligand
#	Creating user name:	suminyi
#	Creation time:		Sun Sep 30 06:49:06 2018

#	Modifying user name:	suminyi
#	Modification time:	Sun Sep 30 06:49:06 2018

@<TRIPOS>MOLECULE
4f09_ligand
   37    40     1     1     0
SMALL
MMFF94_CHARGES


@<TRIPOS>ATOM
      1 C1         16.9310    6.3180   12.4400 C.3       1 JAK         0.1800 
      2 C2         16.5970    7.7520   12.3140 C.2       1 JAK         0.0065 
      3 N3         17.3130    8.7240   12.7670 N.2       1 JAK        -0.5653 
      4 C4         16.6240    9.8760   12.4470 C.ar      1 JAK         0.2272 
      5 C5         16.8930   11.2010   12.7470 C.ar      1 JAK         0.1600 
      6 N6         16.0460   12.1710   12.4260 N.ar      1 JAK        -0.5670 
      7 C7         14.9230   11.8220   11.7920 C.ar      1 JAK         0.1054 
      8 C8         14.5740   10.5280   11.4280 C.ar      1 JAK         0.0000 
      9 C9         15.4800    9.5240   11.7850 C.ar      1 JAK        -0.1516 
     10 N10        15.5130    8.1500   11.7260 N.pl3     1 JAK         0.0476 
     11 C11        14.5060    7.2170   11.2180 C.3       1 JAK         0.2556 
     12 C12        14.2750    7.3290    9.7390 C.3       1 JAK         0.0000 
     13 C13        13.4050    6.1810    9.3550 C.3       1 JAK         0.5030 
     14 N14        12.1350    6.0630   10.0260 N.4       1 JAK        -0.9060 
     15 C15        12.2390    6.2550   11.4640 C.3       1 JAK         0.5030 
     16 C16        13.2000    7.2910   11.9730 C.3       1 JAK         0.0000 
     17 C17        13.3080   10.6300   10.7680 C.2       1 JAK        -0.1500 
     18 C18        12.9640   11.9260   10.7780 C.2       1 JAK        -0.3016 
     19 N19        13.9200   12.6500   11.3990 N.pl3     1 JAK         0.0332 
     20 H1         17.8889    6.2098   12.9698 H         1 JAK         0.0000 
     21 H2         17.0137    5.8713   11.4382 H         1 JAK         0.0000 
     22 H3         16.1391    5.8054   13.0058 H         1 JAK         0.0000 
     23 H4         17.8168   11.4516   13.2558 H         1 JAK         0.1500 
     24 H5         14.9114    6.2095   11.3931 H         1 JAK         0.0000 
     25 H6         15.2326    7.2761    9.2003 H         1 JAK         0.0000 
     26 H7         13.7741    8.2798    9.5041 H         1 JAK         0.0000 
     27 H8         13.9698    5.2577    9.5513 H         1 JAK         0.0000 
     28 H9         13.2030    6.2651    8.2770 H         1 JAK         0.0000 
     29 H10        11.7615    5.1435    9.8498 H         1 JAK         0.4500 
     30 H11        11.5074    6.7578    9.6526 H         1 JAK         0.4500 
     31 H12        12.5370    5.2907   11.9013 H         1 JAK         0.0000 
     32 H13        11.2387    6.5301   11.8297 H         1 JAK         0.0000 
     33 H14        12.7600    8.2901   11.8383 H         1 JAK         0.0000 
     34 H15        13.3894    7.1148   13.0421 H         1 JAK         0.0000 
     35 H16        12.7332    9.8105   10.3391 H         1 JAK         0.1500 
     36 H17        12.0499   12.3339   10.3492 H         1 JAK         0.1500 
     37 H18        13.8931   13.6684   11.5507 H         1 JAK         0.2700 
@<TRIPOS>BOND
     1    1    2 1    
     2    2    3 2    
     3    2   10 1    
     4    3    4 1    
     5    4    5 ar   
     6    4    9 ar   
     7    5    6 ar   
     8    6    7 ar   
     9    7    8 ar   
    10    7   19 1    
    11    8    9 ar   
    12    8   17 1    
    13    9   10 1    
    14   10   11 1    
    15   11   12 1    
    16   11   16 1    
    17   12   13 1    
    18   13   14 1    
    19   14   15 1    
    20   15   16 1    
    21   17   18 2    
    22   18   19 1    
    23    1   20 1    
    24    1   21 1    
    25    1   22 1    
    26    5   23 1    
    27   11   24 1    
    28   12   25 1    
    29   12   26 1    
    30   13   27 1    
    31   13   28 1    
    32   14   29 1    
    33   14   30 1    
    34   15   31 1    
    35   15   32 1    
    36   16   33 1    
    37   16   34 1    
    38   17   35 1    
    39   18   36 1    
    40   19   37 1    
@<TRIPOS>SUBSTRUCTURE
     1 JAK         1 PERM              0 ****  ****    0 ROOT 
@<TRIPOS>NORMAL
@<TRIPOS>ALT_TYPE
MMFF94_ALT_TYPE_SET 
MMFF94 1 CR 11 CR 12 CR 13 CR 15 CR 16 CR 2 C5A 18 C5A 9 C5A 7 C5A 17 C5B \
4 C5B 8 C5B 5 CB 20 HC 21 HC 22 HC 23 HC 24 HC 25 HC \
26 HC 27 HC 28 HC 31 HC 32 HC 33 HC 34 HC 35 HC 36 HC \
37 HPYL 29 HNR+ 30 HNR+ 6 NPYD 10 NPYL 19 NPYL 3 N5B \
14 NR+ 
