#	Name:			3pyy_ligand
#	Creating user name:	suminyi
#	Creation time:		Sun Sep 30 06:51:01 2018

#	Modifying user name:	suminyi
#	Modification time:	Sun Sep 30 06:51:01 2018

@<TRIPOS>MOLECULE
3pyy_ligand
   38    41     1     1     0
SMALL
MMFF94_CHARGES


@<TRIPOS>ATOM
      1 C1         17.9600   11.9490  -38.2550 C.ar      1 MOL        -0.1500 
      2 C2         16.6850   11.5050  -38.6010 C.ar      1 MOL        -0.1500 
      3 C3         18.6200   11.3830  -37.1700 C.ar      1 MOL        -0.1500 
      4 C4         15.5980    5.0610  -33.6080 C.ar      1 MOL        -0.1500 
      5 C5         17.4190    6.4480  -32.8720 C.ar      1 MOL        -0.1500 
      6 C6         16.0660   10.4930  -37.8630 C.ar      1 MOL        -0.1500 
      7 C7         18.0010   10.3840  -36.4230 C.ar      1 MOL        -0.1500 
      8 C8         16.0130    4.0680  -32.7190 C.ar      1 MOL        -0.1500 
      9 C9         17.8220    5.4590  -31.9770 C.ar      1 MOL        -0.1500 
     10 C10        14.7820    8.6900  -35.9810 C.2       1 MOL        -0.3016 
     11 C11        16.2910    6.2740  -33.6840 C.ar      1 MOL         0.0540 
     12 C12        14.6330    7.6420  -35.1160 C.2       1 MOL        -0.1810 
     13 C13        16.7140    9.9290  -36.7530 C.ar      1 MOL        -0.0230 
     14 C14        17.1140    4.2700  -31.9030 C.ar      1 MOL         0.1900 
     15 C15        15.9400    7.3190  -34.6300 C.2       1 MOL         0.2348 
     16 C16        12.6090    6.1290  -35.6620 C.2       1 MOL         0.5690 
     17 C17        11.2250    7.8510  -35.3910 C.2       1 MOL         0.6900 
     18 C18        13.2990    7.0600  -34.6790 C.3       1 MOL         0.5421 
     19 N19        16.8570    8.1420  -35.1480 N.2       1 MOL        -0.7068 
     20 N20        16.1420    8.9370  -35.9920 N.pl3     1 MOL         0.5926 
     21 N21        11.4600    6.6990  -35.9880 N.am      1 MOL        -0.4900 
     22 N22        12.2790    8.1130  -34.6200 N.am      1 MOL        -0.7301 
     23 O23        13.0130    5.0830  -36.1080 O.2       1 MOL        -0.5700 
     24 O24        10.2620    8.5600  -35.5220 O.2       1 MOL        -0.5700 
     25 F25        17.4940    3.3120  -31.0450 F         1 MOL        -0.1900 
     26 H1         18.4440   12.7390  -38.8290 H         1 MOL         0.1500 
     27 H2         16.1730   11.9500  -39.4520 H         1 MOL         0.1500 
     28 H3         19.6170   11.7310  -36.9010 H         1 MOL         0.1500 
     29 H4         14.7780    4.8530  -34.2860 H         1 MOL         0.1500 
     30 H5         17.9750    7.3780  -32.9140 H         1 MOL         0.1500 
     31 H6         15.0860   10.1470  -38.1810 H         1 MOL         0.1500 
     32 H7         18.5230    9.9750  -35.5620 H         1 MOL         0.1500 
     33 H8         15.4980    3.1160  -32.6530 H         1 MOL         0.1500 
     34 H9         18.6840    5.6090  -31.3330 H         1 MOL         0.1500 
     35 H10        14.0570    9.2650  -36.5450 H         1 MOL         0.1500 
     36 H11        13.3350    6.5430  -33.7180 H         1 MOL         0.0000 
     37 H12        10.7720    6.2680  -36.5880 H         1 MOL         0.3700 
     38 H13        12.2920    8.9000  -33.9990 H         1 MOL         0.3700 
@<TRIPOS>BOND
     1    2    1 ar   
     2    3    1 ar   
     3    6    2 ar   
     4    7    3 ar   
     5    4    8 ar   
     6   11    4 ar   
     7    5    9 ar   
     8   11    5 ar   
     9   13    6 ar   
    10   13    7 ar   
    11    8   14 ar   
    12    9   14 ar   
    13   10   12 2    
    14   20   10 1    
    15   15   11 1    
    16   12   15 1    
    17   12   18 1    
    18   13   20 1    
    19   14   25 1    
    20   15   19 2    
    21   18   16 1    
    22   16   21 am   
    23   16   23 2    
    24   21   17 am   
    25   17   22 am   
    26   17   24 2    
    27   18   22 1    
    28   19   20 1    
    29    1   26 1    
    30    2   27 1    
    31    3   28 1    
    32    4   29 1    
    33    5   30 1    
    34    6   31 1    
    35    7   32 1    
    36    8   33 1    
    37    9   34 1    
    38   10   35 1    
    39   18   36 1    
    40   21   37 1    
    41   22   38 1    
@<TRIPOS>SUBSTRUCTURE
     1 MOL         1 PERM              0 ****  ****    0 ROOT 
@<TRIPOS>NORMAL
@<TRIPOS>ALT_TYPE
MMFF94_ALT_TYPE_SET 
MMFF94 18 CR 10 C5A 12 C5B 15 C5B 1 CB 2 CB 3 CB 4 CB 5 CB 6 CB 7 CB \
8 CB 9 CB 11 CB 13 CB 14 CB 17 CONN 16 C=ON 26 HC 27 HC \
28 HC 29 HC 30 HC 31 HC 32 HC 33 HC 34 HC 35 HC 36 HC \
37 HNCO 38 HNCO 23 O=CN 24 O=CN 20 NPYL 19 N5A 21 NC=O \
22 NC=O 25 F 
