#	Name:			2zcr
#	Creating user name:	suminyi
#	Creation time:		Sun Sep 30 06:50:53 2018

#	Modifying user name:	suminyi
#	Modification time:	Sun Sep 30 06:50:53 2018

@<TRIPOS>MOLECULE
2zcr
   52    53     1     1     0
SMALL
MMFF94_CHARGES


@<TRIPOS>ATOM
      1 C1          9.5570   62.0120   37.7830 C.3       1 MOL         0.0000 
      2 C2          9.8180   60.6160   38.3210 C.3       1 MOL         0.0000 
      3 C3         11.2320   60.1240   37.9820 C.3       1 MOL         0.0000 
      4 C4         11.4330   58.7950   38.7060 C.3       1 MOL         0.1435 
      5 C5         12.7320   58.1050   38.3690 C.ar      1 MOL        -0.1435 
      6 C6         12.9010   57.5040   37.1240 C.ar      1 MOL        -0.1500 
      7 C7         14.0500   56.7680   36.8480 C.ar      1 MOL        -0.1500 
      8 C8         13.7240   57.9680   39.3370 C.ar      1 MOL        -0.1500 
      9 C9         14.8800   57.2420   39.0690 C.ar      1 MOL        -0.1500 
     10 C10        15.0570   56.6260   37.8190 C.ar      1 MOL         0.0000 
     11 C11        16.3070   55.8570   37.5140 C.ar      1 MOL         0.0000 
     12 C12        16.9300   55.0820   38.5070 C.ar      1 MOL        -0.1500 
     13 C13        18.1290   54.4320   38.2360 C.ar      1 MOL        -0.1500 
     14 C14        16.8860   55.9160   36.2360 C.ar      1 MOL        -0.1500 
     15 C15        18.0880   55.2680   35.9750 C.ar      1 MOL        -0.1500 
     16 C16        18.7230   54.5500   36.9820 C.ar      1 MOL        -0.1435 
     17 C17        20.0690   53.9040   36.7240 C.3       1 MOL         0.1435 
     18 C18        19.9710   52.3760   36.5220 C.3       1 MOL         0.0000 
     19 C19        21.0580   51.6440   37.3260 C.3       1 MOL         0.0000 
     20 C20        22.5010   52.0230   36.8940 C.3       1 MOL         0.1052 
     21 P1         23.1530   50.8180   35.8210 P.3       1 MOL         1.1000 
     22 O1         24.6120   50.8950   35.8830 O.3       1 MOL        -1.0333 
     23 O2         22.7180   49.5160   36.3490 O.3       1 MOL        -1.0333 
     24 O3         22.5240   51.0920   34.4960 O.2       1 MOL        -1.0333 
     25 S1         23.6840   52.2410   38.1580 S.o2      1 MOL         1.3448 
     26 O4         24.7490   53.2040   38.0780 O.3       1 MOL        -0.8167 
     27 O5         23.9900   51.2150   39.1240 O.3       1 MOL        -0.8167 
     28 O6         22.9530   53.2140   38.9400 O.3       1 MOL        -0.8167 
     29 H1          8.5720   62.3130   38.1190 H         1 MOL         0.0000 
     30 H2          9.6070   62.0400   36.6940 H         1 MOL         0.0000 
     31 H3         10.2810   62.7080   38.1930 H         1 MOL         0.0000 
     32 H4          9.0720   59.9230   37.9240 H         1 MOL         0.0000 
     33 H5          9.7080   60.6440   39.4040 H         1 MOL         0.0000 
     34 H6         11.9860   60.8330   38.3290 H         1 MOL         0.0000 
     35 H7         11.3440   59.9920   36.9030 H         1 MOL         0.0000 
     36 H8         10.6030   58.1420   38.4410 H         1 MOL         0.0000 
     37 H9         11.3710   58.9690   39.7830 H         1 MOL         0.0000 
     38 H10        12.1270   57.5860   36.3660 H         1 MOL         0.1500 
     39 H11        14.1480   56.2880   35.8780 H         1 MOL         0.1500 
     40 H12        13.5890   58.4120   40.3170 H         1 MOL         0.1500 
     41 H13        15.6450   57.1650   39.8350 H         1 MOL         0.1500 
     42 H14        16.4850   54.9860   39.4870 H         1 MOL         0.1500 
     43 H15        18.6130   53.8430   39.0090 H         1 MOL         0.1500 
     44 H16        16.4150   56.4820   35.4400 H         1 MOL         0.1500 
     45 H17        18.5360   55.3260   34.9850 H         1 MOL         0.1500 
     46 H18        20.7110   54.1310   37.5780 H         1 MOL         0.0000 
     47 H19        20.5520   54.3530   35.8520 H         1 MOL         0.0000 
     48 H20        20.0540   52.1260   35.4610 H         1 MOL         0.0000 
     49 H21        18.9980   52.0130   36.8620 H         1 MOL         0.0000 
     50 H22        20.8660   50.5740   37.2610 H         1 MOL         0.0000 
     51 H23        20.8870   51.8980   38.3510 H         1 MOL         0.0000 
     52 H24        22.4950   52.9300   36.3090 H         1 MOL         0.0000 
@<TRIPOS>BOND
     1    1    2 1    
     2    2    3 1    
     3    3    4 1    
     4    4    5 1    
     5    5    6 ar   
     6    5    8 ar   
     7    6    7 ar   
     8    7   10 ar   
     9    8    9 ar   
    10    9   10 ar   
    11   10   11 1    
    12   11   12 ar   
    13   11   14 ar   
    14   12   13 ar   
    15   13   16 ar   
    16   14   15 ar   
    17   15   16 ar   
    18   16   17 1    
    19   17   18 1    
    20   18   19 1    
    21   19   20 1    
    22   20   21 1    
    23   20   25 1    
    24   21   22 ar   
    25   21   23 ar   
    26   21   24 ar   
    27   25   26 ar   
    28   25   27 ar   
    29   25   28 ar   
    30    1   29 1    
    31    1   30 1    
    32    1   31 1    
    33    2   32 1    
    34    2   33 1    
    35    3   34 1    
    36    3   35 1    
    37    4   36 1    
    38    4   37 1    
    39    6   38 1    
    40    7   39 1    
    41    8   40 1    
    42    9   41 1    
    43   12   42 1    
    44   13   43 1    
    45   14   44 1    
    46   15   45 1    
    47   17   46 1    
    48   17   47 1    
    49   18   48 1    
    50   18   49 1    
    51   19   50 1    
    52   19   51 1    
    53   20   52 1    
@<TRIPOS>SUBSTRUCTURE
     1 MOL         1 PERM              0 ****  ****    0 ROOT 
@<TRIPOS>NORMAL
@<TRIPOS>ALT_TYPE
MMFF94_ALT_TYPE_SET 
MMFF94 1 CR 2 CR 3 CR 4 CR 17 CR 18 CR 19 CR 20 CR 5 CB 6 CB 7 CB 8 CB \
9 CB 10 CB 11 CB 12 CB 13 CB 14 CB 15 CB 16 CB 29 HC 30 HC \
31 HC 32 HC 33 HC 34 HC 35 HC 36 HC 37 HC 38 HC 39 HC \
40 HC 41 HC 42 HC 43 HC 44 HC 45 HC 46 HC 47 HC 48 HC \
49 HC 50 HC 51 HC 52 HC 26 O3S 27 O3S 28 O3S 22 O3P 23 O3P \
24 O3P 25 SO3 21 PO3 
