#	Name:			1nvq_ligand
#	Creating user name:	suminyi
#	Creation time:		Sun Sep 30 06:50:57 2018

#	Modifying user name:	suminyi
#	Modification time:	Sun Sep 30 06:50:57 2018

@<TRIPOS>MOLECULE
1nvq_ligand
   63    70     1     1     0
SMALL
MMFF94_CHARGES


@<TRIPOS>ATOM
      1 O37         8.3270    9.7020   17.4190 O.3       1 MOL        -0.6800 
      2 C9          7.7160    9.1490   18.5580 C.3       1 MOL         0.7236 
      3 N1          6.8760   10.1150   19.2530 N.am      1 MOL        -0.7301 
      4 C8          5.5960    9.7570   19.3840 C.2       1 MOL         0.5438 
      5 O5          4.7670   10.3950   19.9880 O.2       1 MOL        -0.5700 
      6 C7          5.4610    8.4620   18.6850 C.ar      1 MOL         0.0862 
      7 C6          4.3390    7.6520   18.4440 C.ar      1 MOL         0.0000 
      8 C5          2.9130    7.7400   18.7900 C.ar      1 MOL         0.0000 
      9 C20         2.3100    6.6130   18.2500 C.ar      1 MOL        -0.0230 
     10 C1          0.9560    6.3440   18.4110 C.ar      1 MOL        -0.1500 
     11 C2          0.1900    7.2670   19.1250 C.ar      1 MOL        -0.1500 
     12 C3          0.7770    8.4290   19.6470 C.ar      1 MOL        -0.1500 
     13 C4          2.1420    8.6870   19.4820 C.ar      1 MOL        -0.1500 
     14 N3          3.2710    5.9010   17.5830 N.pl3     1 MOL        -0.2096 
     15 C19         4.4980    6.5010   17.6760 C.ar      1 MOL        -0.0230 
     16 C18         5.7410    6.1740   17.1280 C.ar      1 MOL        -0.0230 
     17 N2          6.1290    5.1970   16.2460 N.pl3     1 MOL        -0.2096 
     18 C17         7.4620    5.3410   15.8980 C.ar      1 MOL        -0.0230 
     19 C12         7.9690    6.4010   16.6380 C.ar      1 MOL         0.0000 
     20 C13         9.3160    6.7750   16.5450 C.ar      1 MOL        -0.1500 
     21 C14        10.1380    6.0630   15.6690 C.ar      1 MOL        -0.1500 
     22 C15         9.6180    5.0230   14.8930 C.ar      1 MOL        -0.1500 
     23 C16         8.2720    4.6650   14.9840 C.ar      1 MOL        -0.1500 
     24 C11         6.8500    6.9630   17.3910 C.ar      1 MOL         0.0000 
     25 C10         6.7050    8.1080   18.1820 C.ar      1 MOL        -0.1435 
     26 C21         5.1680    4.2080   15.7190 C.3       1 MOL         0.5356 
     27 O4          4.2240    3.8480   16.7770 O.3       1 MOL        -0.5600 
     28 C25         3.0000    4.6100   16.9490 C.3       1 MOL         0.5356 
     29 C24         2.2080    4.7070   15.6200 C.3       1 MOL         0.0000 
     30 C23         2.9920    4.1570   14.4130 C.3       1 MOL         0.5030 
     31 N4          2.2970    4.3930   13.0970 N.4       1 MOL        -0.9060 
     32 C28         2.9260    3.5590   11.9990 C.3       1 MOL         0.5030 
     33 C22         4.4250    4.7260   14.4470 C.3       1 MOL         0.2800 
     34 O6          4.3170    6.1820   14.3920 O.3       1 MOL        -0.5600 
     35 C27         5.2740    6.8380   13.5270 C.3       1 MOL         0.2800 
     36 C26         5.7790    2.8200   15.4260 C.3       1 MOL         0.0000 
     37 H1          8.1050    9.1780   16.6220 H         1 MOL         0.4000 
     38 H2          8.4770    8.7480   19.2500 H         1 MOL         0.0000 
     39 H3          7.2000   11.0320   19.5550 H         1 MOL         0.3700 
     40 H4          0.4990    5.4510   17.9870 H         1 MOL         0.1500 
     41 H5         -0.8790    7.0920   19.2490 H         1 MOL         0.1500 
     42 H6          0.1590    9.1570   20.1690 H         1 MOL         0.1500 
     43 H7          2.5560    9.6100   19.8730 H         1 MOL         0.1500 
     44 H8          9.7270    7.5950   17.1190 H         1 MOL         0.1500 
     45 H9         11.1860    6.3410   15.5590 H         1 MOL         0.1500 
     46 H10        10.2560    4.5110   14.1730 H         1 MOL         0.1500 
     47 H11         7.8970    3.9060   14.3090 H         1 MOL         0.1500 
     48 H12         2.3970    4.0560   17.6850 H         1 MOL         0.0000 
     49 H13         1.9210    5.7450   15.4320 H         1 MOL         0.0000 
     50 H14         1.2760    4.1460   15.7280 H         1 MOL         0.0000 
     51 H15         3.0560    3.0720   14.5330 H         1 MOL         0.0000 
     52 H16         2.3200    5.4160   12.8340 H         1 MOL         0.4500 
     53 H17         1.2450    4.2380   13.2080 H         1 MOL         0.4500 
     54 H18         2.3690    3.6790   11.0740 H         1 MOL         0.0000 
     55 H19         2.9160    2.5090   12.3000 H         1 MOL         0.0000 
     56 H20         3.9520    3.9060   11.8380 H         1 MOL         0.0000 
     57 H21         4.9690    4.3920   13.5590 H         1 MOL         0.0000 
     58 H22         5.0440    7.9050   13.4950 H         1 MOL         0.0000 
     59 H23         5.1960    6.4210   12.5240 H         1 MOL         0.0000 
     60 H24         6.2870    6.6900   13.9040 H         1 MOL         0.0000 
     61 H25         5.0300    2.0290   15.5260 H         1 MOL         0.0000 
     62 H26         6.5810    2.6140   16.1350 H         1 MOL         0.0000 
     63 H27         6.1750    2.7430   14.4140 H         1 MOL         0.0000 
@<TRIPOS>BOND
     1    2    1 1    
     2    2    3 1    
     3    2   25 1    
     4    3    4 am   
     5    4    5 2    
     6    4    6 1    
     7    6    7 ar   
     8   25    6 ar   
     9    7    8 1    
    10    7   15 ar   
    11    8    9 ar   
    12    8   13 ar   
    13    9   10 ar   
    14    9   14 1    
    15   10   11 ar   
    16   11   12 ar   
    17   13   12 ar   
    18   14   15 1    
    19   14   28 1    
    20   15   16 ar   
    21   16   17 1    
    22   16   24 ar   
    23   17   18 1    
    24   17   26 1    
    25   18   19 ar   
    26   18   23 ar   
    27   19   20 ar   
    28   19   24 1    
    29   20   21 ar   
    30   21   22 ar   
    31   23   22 ar   
    32   24   25 ar   
    33   26   27 1    
    34   26   33 1    
    35   26   36 1    
    36   27   28 1    
    37   28   29 1    
    38   29   30 1    
    39   30   31 1    
    40   33   30 1    
    41   31   32 1    
    42   33   34 1    
    43   34   35 1    
    44    1   37 1    
    45    2   38 1    
    46    3   39 1    
    47   10   40 1    
    48   11   41 1    
    49   12   42 1    
    50   13   43 1    
    51   20   44 1    
    52   21   45 1    
    53   22   46 1    
    54   23   47 1    
    55   28   48 1    
    56   29   49 1    
    57   29   50 1    
    58   30   51 1    
    59   31   52 1    
    60   31   53 1    
    61   32   54 1    
    62   32   55 1    
    63   32   56 1    
    64   33   57 1    
    65   35   58 1    
    66   35   59 1    
    67   35   60 1    
    68   36   61 1    
    69   36   62 1    
    70   36   63 1    
@<TRIPOS>SUBSTRUCTURE
     1 MOL         1 PERM              0 ****  ****    0 ROOT 
@<TRIPOS>NORMAL
@<TRIPOS>ALT_TYPE
MMFF94_ALT_TYPE_SET 
MMFF94 2 CR 26 CR 28 CR 29 CR 30 CR 32 CR 33 CR 35 CR 36 CR 6 CB 7 CB \
8 CB 9 CB 10 CB 11 CB 12 CB 13 CB 15 CB 16 CB 18 CB 19 CB \
20 CB 21 CB 22 CB 23 CB 24 CB 25 CB 4 C=ON 38 HC 40 HC \
41 HC 42 HC 43 HC 44 HC 45 HC 46 HC 47 HC 48 HC 49 HC \
50 HC 51 HC 54 HC 55 HC 56 HC 57 HC 58 HC 59 HC 60 HC \
61 HC 62 HC 63 HC 39 HNCO 52 HNR+ 53 HNR+ 37 HOR 5 O=CN \
1 OR 27 OR 34 OR 14 NPYL 17 NPYL 31 NR+ 3 NC=O 
