#	Name:			4x6p_ligand
#	Creating user name:	suminyi
#	Creation time:		Sun Sep 30 06:51:04 2018

#	Modifying user name:	suminyi
#	Modification time:	Sun Sep 30 06:51:04 2018

@<TRIPOS>MOLECULE
4x6p_ligand
   63    68     1     1     0
SMALL
MMFF94_CHARGES


@<TRIPOS>ATOM
      1 N14        10.5320   18.1310  -38.8430 N.2       1 MOL        -0.5653 
      2 C13         9.6420   17.3410  -39.5120 C.2       1 MOL         0.1732 
      3 C18         6.3510   15.5020  -37.6370 C.ar      1 MOL         0.0000 
      4 C17         6.6370   15.1770  -38.9190 C.ar      1 MOL        -0.1516 
      5 C16         7.7140   15.7380  -39.6000 C.ar      1 MOL        -0.1500 
      6 C15         8.5190   16.6600  -38.9030 C.ar      1 MOL         0.0540 
      7 C19         7.1120   16.4120  -36.9170 C.ar      1 MOL        -0.1500 
      8 C20         8.2080   16.9790  -37.5660 C.ar      1 MOL        -0.1500 
      9 C21        19.7530   16.7250  -40.9080 C.ar      1 MOL        -0.1500 
     10 C22        20.6140   17.1530  -39.9000 C.ar      1 MOL        -0.1500 
     11 C23        20.1610   18.0380  -38.9260 C.ar      1 MOL         0.1770 
     12 C24        18.8320   18.4400  -38.9250 C.ar      1 MOL        -0.1500 
     13 C12         9.8770   17.3510  -40.8610 C.2       1 MOL        -0.3016 
     14 C33        17.9210   16.9720  -43.2710 C.2       1 MOL         0.0365 
     15 N1         13.7290   19.2130  -39.6030 N.am      1 MOL        -0.7301 
     16 C2         12.3440   19.6930  -39.4260 C.3       1 MOL         0.4801 
     17 C3         11.2990   18.6660  -39.7850 C.2       1 MOL         0.0065 
     18 C4         12.0660   21.0170  -40.1770 C.3       1 MOL         0.1435 
     19 C5         10.7510   21.7130  -39.8200 C.ar      1 MOL        -0.1435 
     20 C6         10.1720   22.5660  -40.7640 C.ar      1 MOL        -0.1500 
     21 C7          9.0060   23.2720  -40.4680 C.ar      1 MOL        -0.1500 
     22 C8          8.4080   23.1370  -39.2180 C.ar      1 MOL        -0.1500 
     23 C9          8.9720   22.2890  -38.2700 C.ar      1 MOL        -0.1500 
     24 C10        10.1350   21.5810  -38.5650 C.ar      1 MOL        -0.1500 
     25 N11        10.9460   18.2070  -41.0330 N.pl3     1 MOL         0.0332 
     26 C25        17.9700   18.0370  -39.9460 C.ar      1 MOL         0.0284 
     27 C26        18.4360   17.1950  -40.9670 C.ar      1 MOL        -0.0230 
     28 N27        17.6040   16.7680  -41.9640 N.pl3     1 MOL         0.5926 
     29 Cl1        21.2320   18.6390  -37.7090 Cl        1 MOL        -0.1770 
     30 C29        16.5540   18.4200  -39.8700 C.2       1 MOL        -0.1784 
     31 C30        15.7940   18.3110  -38.7760 C.2       1 MOL        -0.1356 
     32 C31        14.3510   18.4950  -38.6530 C.2       1 MOL         0.6156 
     33 O32        13.7490   18.0430  -37.7100 O.2       1 MOL        -0.5700 
     34 N34        16.8650   16.5720  -43.9900 N.2       1 MOL        -0.3381 
     35 N35        15.9240   16.1370  -43.0710 N.2       1 MOL         0.0000 
     36 N36        16.3580   16.2550  -41.8280 N.2       1 MOL        -0.4180 
     37 N37         5.6910   14.3080  -39.3380 N.pl3     1 MOL         0.2996 
     38 N38         4.7780   14.0150  -38.3490 N.2       1 MOL        -0.7068 
     39 C39         5.1950   14.7620  -37.3140 C.2       1 MOL         0.3718 
     40 N40         4.5590   14.8520  -36.1370 N.pl3     1 MOL        -0.8830 
     41 H1          7.9170   15.4660  -40.6300 H         1 MOL         0.1500 
     42 H2          6.8670   16.6930  -35.8960 H         1 MOL         0.1500 
     43 H3          8.8000   17.7180  -37.0240 H         1 MOL         0.1500 
     44 H4         20.1270   15.9990  -41.6220 H         1 MOL         0.1500 
     45 H5         21.6370   16.7760  -39.8670 H         1 MOL         0.1500 
     46 H6         18.4820   19.1080  -38.1420 H         1 MOL         0.1500 
     47 H7          9.3410   16.8960  -41.6800 H         1 MOL         0.1500 
     48 H8         18.8620   17.3560  -43.6180 H         1 MOL         0.1500 
     49 H9         14.3040   19.6440  -40.3050 H         1 MOL         0.3700 
     50 H10        12.2290   19.8870  -38.3580 H         1 MOL         0.0000 
     51 H11        12.0990   20.8330  -41.2530 H         1 MOL         0.0000 
     52 H12        12.8800   21.7150  -39.9680 H         1 MOL         0.0000 
     53 H13        10.6370   22.7030  -41.7380 H         1 MOL         0.1500 
     54 H14         8.5700   23.9400  -41.2070 H         1 MOL         0.1500 
     55 H15         7.5050   23.6950  -38.9780 H         1 MOL         0.1500 
     56 H16         8.5070   22.1810  -37.2910 H         1 MOL         0.1500 
     57 H17        10.5370   20.9340  -37.7890 H         1 MOL         0.1500 
     58 H18        11.3440   18.5360  -41.8980 H         1 MOL         0.2700 
     59 H19        16.0690   18.6320  -40.8220 H         1 MOL         0.1500 
     60 H20        16.2720   17.9310  -37.8730 H         1 MOL         0.1500 
     61 H21         5.5770   13.9440  -40.2750 H         1 MOL         0.2700 
     62 H22         3.6580   14.4320  -36.0790 H         1 MOL         0.4000 
     63 H23         4.7750   15.6530  -35.5330 H         1 MOL         0.4000 
@<TRIPOS>BOND
     1    1    2 1    
     2   17    1 2    
     3    2    6 1    
     4   13    2 2    
     5    4    3 ar   
     6    7    3 ar   
     7    3   39 1    
     8    5    4 ar   
     9    4   37 1    
    10    6    5 ar   
    11    6    8 ar   
    12    8    7 ar   
    13    9   10 ar   
    14   27    9 ar   
    15   11   10 ar   
    16   12   11 ar   
    17   11   29 1    
    18   26   12 ar   
    19   25   13 1    
    20   28   14 1    
    21   14   34 2    
    22   15   16 1    
    23   32   15 am   
    24   16   17 1    
    25   16   18 1    
    26   17   25 1    
    27   18   19 1    
    28   19   20 ar   
    29   19   24 ar   
    30   20   21 ar   
    31   21   22 ar   
    32   23   22 ar   
    33   24   23 ar   
    34   26   27 ar   
    35   30   26 1    
    36   27   28 1    
    37   28   36 1    
    38   31   30 2    
    39   31   32 1    
    40   32   33 2    
    41   34   35 1    
    42   35   36 2    
    43   37   38 1    
    44   38   39 2    
    45   39   40 1    
    46    5   41 1    
    47    7   42 1    
    48    8   43 1    
    49    9   44 1    
    50   10   45 1    
    51   12   46 1    
    52   13   47 1    
    53   14   48 1    
    54   15   49 1    
    55   16   50 1    
    56   18   51 1    
    57   18   52 1    
    58   20   53 1    
    59   21   54 1    
    60   22   55 1    
    61   23   56 1    
    62   24   57 1    
    63   25   58 1    
    64   30   59 1    
    65   31   60 1    
    66   37   61 1    
    67   40   62 1    
    68   40   63 1    
@<TRIPOS>SUBSTRUCTURE
     1 MOL         1 PERM              0 ****  ****    0 ROOT 
@<TRIPOS>NORMAL
@<TRIPOS>ALT_TYPE
MMFF94_ALT_TYPE_SET 
MMFF94 16 CR 18 CR 13 C5A 17 C5A 14 C5A 4 C5A 2 C5B 39 C5B 3 C5B 5 CB \
6 CB 7 CB 8 CB 9 CB 10 CB 11 CB 12 CB 19 CB 20 CB 21 CB \
22 CB 23 CB 24 CB 26 CB 27 CB 32 C=ON 30 C=C 31 C=C 41 HC \
42 HC 43 HC 44 HC 45 HC 46 HC 47 HC 48 HC 50 HC 51 HC \
52 HC 53 HC 54 HC 55 HC 56 HC 57 HC 59 HC 60 HC 58 HPYL \
61 HPYL 62 HNCN 63 HNCN 49 HNCO 33 O=CN 25 NPYL 28 NPYL \
37 NPYL 36 N5A 38 N5A 1 N5B 34 N5B 35 N5B 15 NC=O 40 NC=N \
29 CL 
