#	Name:			4x6p_ligand
#	Creating user name:	suminyi
#	Creation time:		Sun Sep 30 06:48:56 2018

#	Modifying user name:	suminyi
#	Modification time:	Sun Sep 30 06:48:56 2018

@<TRIPOS>MOLECULE
4x6p_ligand
   63    68     1     1     0
SMALL
MMFF94_CHARGES


@<TRIPOS>ATOM
      1 N14        10.4640   18.3920  -38.8120 N.2       1 MOL        -0.5653 
      2 C13         9.6580   17.4950  -39.4920 C.2       1 MOL         0.1732 
      3 C18         6.4050   15.5140  -37.5450 C.ar      1 MOL         0.0000 
      4 C17         6.9770   14.9820  -38.7170 C.ar      1 MOL        -0.1516 
      5 C16         8.0670   15.5870  -39.3370 C.ar      1 MOL        -0.1500 
      6 C15         8.6230   16.7330  -38.7680 C.ar      1 MOL         0.0540 
      7 C19         6.9970   16.6380  -36.9700 C.ar      1 MOL        -0.1500 
      8 C20         8.0890   17.2330  -37.5750 C.ar      1 MOL        -0.1500 
      9 C21        19.7430   16.8600  -40.9280 C.ar      1 MOL        -0.1500 
     10 C22        20.5770   17.3090  -39.9130 C.ar      1 MOL        -0.1500 
     11 C23        20.0630   18.1340  -38.9330 C.ar      1 MOL         0.1770 
     12 C24        18.7340   18.5050  -38.9300 C.ar      1 MOL        -0.1500 
     13 C12        10.0510   17.4420  -40.7950 C.2       1 MOL        -0.3016 
     14 C33        17.8470   16.8600  -43.3980 C.2       1 MOL         0.0365 
     15 N1         13.7240   19.4490  -39.5490 N.am      1 MOL        -0.7301 
     16 C2         12.3480   19.9150  -39.3760 C.3       1 MOL         0.4801 
     17 C3         11.3140   18.8760  -39.7030 C.2       1 MOL         0.0065 
     18 C4         12.0950   21.2270  -40.1440 C.3       1 MOL         0.1435 
     19 C5         10.7590   21.8640  -39.8350 C.ar      1 MOL        -0.1435 
     20 C6         10.0380   22.5010  -40.8370 C.ar      1 MOL        -0.1500 
     21 C7          8.8170   23.0920  -40.5590 C.ar      1 MOL        -0.1500 
     22 C8          8.3020   23.0670  -39.2770 C.ar      1 MOL        -0.1500 
     23 C9          9.0040   22.4400  -38.2720 C.ar      1 MOL        -0.1500 
     24 C10        10.2240   21.8430  -38.5470 C.ar      1 MOL        -0.1500 
     25 N11        11.0850   18.3280  -40.9180 N.pl3     1 MOL         0.0332 
     26 C25        17.8770   18.0380  -39.9340 C.ar      1 MOL         0.0284 
     27 C26        18.3900   17.1940  -40.9400 C.ar      1 MOL        -0.0230 
     28 N27        17.5990   16.8560  -42.0780 N.pl3     1 MOL         0.5926 
     29 CL1        21.1170   18.7520  -37.6900 Cl        1 MOL        -0.1770 
     30 C29        16.4730   18.4750  -39.8620 C.2       1 MOL        -0.1784 
     31 C30        15.6650   18.2190  -38.8350 C.2       1 MOL        -0.1356 
     32 C31        14.2510   18.6120  -38.6310 C.2       1 MOL         0.6156 
     33 O32        13.5700   18.1550  -37.7110 O.2       1 MOL        -0.5700 
     34 N34        16.8290   16.3690  -44.0480 N.2       1 MOL        -0.3381 
     35 N35        15.9280   16.0190  -43.0950 N.2       1 MOL         0.0000 
     36 N36        16.3770   16.2910  -41.9080 N.2       1 MOL        -0.4180 
     37 N37         6.2560   13.8790  -39.0360 N.pl3     1 MOL         0.2996 
     38 N38         5.2250   13.6760  -38.1610 N.2       1 MOL        -0.7068 
     39 C39         5.2590   14.6410  -37.2410 C.2       1 MOL         0.3718 
     40 N40         4.3450   14.7230  -36.2550 N.pl3     1 MOL        -0.8830 
     41 H1          8.4784   15.1728  -40.2503 H         1 MOL         0.1500 
     42 H2          6.6006   17.0461  -36.0473 H         1 MOL         0.1500 
     43 H3          8.5407   18.1048  -37.1156 H         1 MOL         0.1500 
     44 H4         20.1491   16.2422  -41.7208 H         1 MOL         0.1500 
     45 H5         21.6201   17.0150  -39.8904 H         1 MOL         0.1500 
     46 H6         18.3540   19.1569  -38.1517 H         1 MOL         0.1500 
     47 H7          9.6268   16.8190  -41.5810 H         1 MOL         0.1500 
     48 H8         18.7654   17.2211  -43.8586 H         1 MOL         0.1500 
     49 H9         14.2656   19.7461  -40.3354 H         1 MOL         0.3700 
     50 H10        12.2300   20.1445  -38.3067 H         1 MOL         0.0000 
     51 H11        12.1361   21.0119  -41.2220 H         1 MOL         0.0000 
     52 H12        12.8893   21.9415  -39.8821 H         1 MOL         0.0000 
     53 H13        10.4346   22.5357  -41.8452 H         1 MOL         0.1500 
     54 H14         8.2612   23.5778  -41.3528 H         1 MOL         0.1500 
     55 H15         7.3497   23.5388  -39.0635 H         1 MOL         0.1500 
     56 H16         8.6023   22.4134  -37.2655 H         1 MOL         0.1500 
     57 H17        10.7705   21.3526  -37.7496 H         1 MOL         0.1500 
     58 H18        11.5996   18.5409  -41.7845 H         1 MOL         0.2700 
     59 H19        16.0706   19.0423  -40.6999 H         1 MOL         0.1500 
     60 H20        16.1075   17.6365  -38.0283 H         1 MOL         0.1500 
     61 H21         6.4601   13.2682  -39.8398 H         1 MOL         0.2700 
     62 H22         3.5973   14.0180  -36.1860 H         1 MOL         0.4000 
     63 H23         4.3938   15.4907  -35.5700 H         1 MOL         0.4000 
@<TRIPOS>BOND
     1    1    2 1    
     2   17    1 2    
     3    2    6 1    
     4   13    2 2    
     5    4    3 ar   
     6    7    3 ar   
     7    3   39 1    
     8    5    4 ar   
     9    4   37 1    
    10    6    5 ar   
    11    6    8 ar   
    12    8    7 ar   
    13    9   10 ar   
    14   27    9 ar   
    15   11   10 ar   
    16   12   11 ar   
    17   11   29 1    
    18   26   12 ar   
    19   25   13 1    
    20   28   14 1    
    21   14   34 2    
    22   15   16 1    
    23   32   15 am   
    24   16   17 1    
    25   16   18 1    
    26   17   25 1    
    27   18   19 1    
    28   19   20 ar   
    29   19   24 ar   
    30   20   21 ar   
    31   21   22 ar   
    32   23   22 ar   
    33   24   23 ar   
    34   26   27 ar   
    35   30   26 1    
    36   27   28 1    
    37   28   36 1    
    38   31   30 2    
    39   31   32 1    
    40   32   33 2    
    41   34   35 1    
    42   35   36 2    
    43   37   38 1    
    44   38   39 2    
    45   39   40 1    
    46    5   41 1    
    47    7   42 1    
    48    8   43 1    
    49    9   44 1    
    50   10   45 1    
    51   12   46 1    
    52   13   47 1    
    53   14   48 1    
    54   15   49 1    
    55   16   50 1    
    56   18   51 1    
    57   18   52 1    
    58   20   53 1    
    59   21   54 1    
    60   22   55 1    
    61   23   56 1    
    62   24   57 1    
    63   25   58 1    
    64   30   59 1    
    65   31   60 1    
    66   37   61 1    
    67   40   62 1    
    68   40   63 1    
@<TRIPOS>SUBSTRUCTURE
     1 MOL         1 PERM              0 ****  ****    0 ROOT 
@<TRIPOS>NORMAL
@<TRIPOS>ALT_TYPE
MMFF94_ALT_TYPE_SET 
MMFF94 16 CR 18 CR 13 C5A 17 C5A 14 C5A 4 C5A 2 C5B 39 C5B 3 C5B 5 CB \
6 CB 7 CB 8 CB 9 CB 10 CB 11 CB 12 CB 19 CB 20 CB 21 CB \
22 CB 23 CB 24 CB 26 CB 27 CB 32 C=ON 30 C=C 31 C=C 41 HC \
42 HC 43 HC 44 HC 45 HC 46 HC 47 HC 48 HC 50 HC 51 HC \
52 HC 53 HC 54 HC 55 HC 56 HC 57 HC 59 HC 60 HC 58 HPYL \
61 HPYL 62 HNCN 63 HNCN 49 HNCO 33 O=CN 25 NPYL 28 NPYL \
37 NPYL 36 N5A 38 N5A 1 N5B 34 N5B 35 N5B 15 NC=O 40 NC=N \
29 CL 
