#	Name:			1uto_ligand
#	Creating user name:	suminyi
#	Creation time:		Sun Sep 30 06:50:56 2018

#	Modifying user name:	suminyi
#	Modification time:	Sun Sep 30 06:50:56 2018

@<TRIPOS>MOLECULE
1uto_ligand
   21    21     1     1     0
SMALL
MMFF94_CHARGES


@<TRIPOS>ATOM
      1 C1'        45.3090   20.0640   50.9230 C.ar      1 MOL        -0.1435 
      2 C6'        46.3130   21.0290   51.0520 C.ar      1 MOL        -0.1500 
      3 C5'        46.1360   22.3090   50.5240 C.ar      1 MOL        -0.1500 
      4 C4'        44.9520   22.6340   49.8640 C.ar      1 MOL        -0.1500 
      5 C3'        43.9520   21.6740   49.7210 C.ar      1 MOL        -0.1500 
      6 C2'        44.1380   20.3910   50.2330 C.ar      1 MOL        -0.1500 
      7 C2         45.5070   18.6600   51.4860 C.3       1 MOL         0.1435 
      8 C1         45.6790   18.6150   53.0240 C.3       1 MOL         0.5030 
      9 N          46.2460   17.2990   53.5440 N.4       1 MOL        -0.8530 
     10 H1         47.2360   20.7900   51.5750 H         1 MOL         0.1500 
     11 H2         46.9160   23.0590   50.6460 H         1 MOL         0.1500 
     12 H3         44.7960   23.6360   49.4700 H         1 MOL         0.1500 
     13 H4         43.0120   21.9240   49.2250 H         1 MOL         0.1500 
     14 H5         43.3420   19.6580   50.1060 H         1 MOL         0.1500 
     15 H6         46.3880   18.2400   51.0060 H         1 MOL         0.0000 
     16 H7         44.6650   18.0230   51.2010 H         1 MOL         0.0000 
     17 H8         44.7110   18.7990   53.5040 H         1 MOL         0.0000 
     18 H9         46.3690   19.4100   53.3310 H         1 MOL         0.0000 
     19 H10        46.5100   17.2440   54.5560 H         1 MOL         0.4500 
     20 H11        47.1490   17.0670   53.0760 H         1 MOL         0.4500 
     21 H12        45.6850   16.4420   53.3690 H         1 MOL         0.4500 
@<TRIPOS>BOND
     1    1    2 ar   
     2    1    6 ar   
     3    1    7 1    
     4    2    3 ar   
     5    3    4 ar   
     6    4    5 ar   
     7    5    6 ar   
     8    7    8 1    
     9    8    9 1    
    10    2   10 1    
    11    3   11 1    
    12    4   12 1    
    13    5   13 1    
    14    6   14 1    
    15    7   15 1    
    16    7   16 1    
    17    8   17 1    
    18    8   18 1    
    19    9   19 1    
    20    9   20 1    
    21    9   21 1    
@<TRIPOS>SUBSTRUCTURE
     1 MOL         1 PERM              0 ****  ****    0 ROOT 
@<TRIPOS>NORMAL
@<TRIPOS>ALT_TYPE
MMFF94_ALT_TYPE_SET 
MMFF94 7 CR 8 CR 1 CB 2 CB 3 CB 4 CB 5 CB 6 CB 10 HC 11 HC 12 HC 13 HC \
14 HC 15 HC 16 HC 17 HC 18 HC 19 HNR+ 20 HNR+ 21 HNR+ \
9 NR+ 
