#	Name:			1uto_ligand
#	Creating user name:	suminyi
#	Creation time:		Sun Sep 30 06:48:37 2018

#	Modifying user name:	suminyi
#	Modification time:	Sun Sep 30 06:48:37 2018

@<TRIPOS>MOLECULE
1uto_ligand
   21    21     1     1     0
SMALL
MMFF94_CHARGES


@<TRIPOS>ATOM
      1 C1'        45.2880   20.2790   50.4580 C.ar      1 PEA        -0.1435 
      2 C6'        46.2750   21.2320   50.6380 C.ar      1 PEA        -0.1500 
      3 C5'        46.1530   22.5390   50.1950 C.ar      1 PEA        -0.1500 
      4 C4'        45.0100   22.9460   49.5230 C.ar      1 PEA        -0.1500 
      5 C3'        44.0220   22.0000   49.3210 C.ar      1 PEA        -0.1500 
      6 C2'        44.1610   20.7100   49.7750 C.ar      1 PEA        -0.1500 
      7 C2         45.4430   18.9650   50.9490 C.3       1 PEA         0.1435 
      8 C1         45.5370   18.9420   52.5050 C.3       1 PEA         0.5030 
      9 N          45.7910   17.5620   53.0200 N.4       1 PEA        -0.8530 
     10 H1         47.1859   20.9425   51.1494 H         1 PEA         0.1500 
     11 H2         46.9543   23.2466   50.3744 H         1 PEA         0.1500 
     12 H3         44.8958   23.9647   49.1704 H         1 PEA         0.1500 
     13 H4         43.1181   22.2818   48.7931 H         1 PEA         0.1500 
     14 H5         43.3596   20.0033   49.5922 H         1 PEA         0.1500 
     15 H6         46.3635   18.5332   50.5293 H         1 PEA         0.0000 
     16 H7         44.5785   18.3619   50.6346 H         1 PEA         0.0000 
     17 H8         44.5900   19.3113   52.9255 H         1 PEA         0.0000 
     18 H9         46.3602   19.5988   52.8228 H         1 PEA         0.0000 
     19 H10        45.8458   17.5837   54.0263 H         1 PEA         0.4500 
     20 H11        46.6603   17.2175   52.6435 H         1 PEA         0.4500 
     21 H12        45.0382   16.9541   52.7376 H         1 PEA         0.4500 
@<TRIPOS>BOND
     1    1    2 ar   
     2    1    6 ar   
     3    1    7 1    
     4    2    3 ar   
     5    3    4 ar   
     6    4    5 ar   
     7    5    6 ar   
     8    7    8 1    
     9    8    9 1    
    10    2   10 1    
    11    3   11 1    
    12    4   12 1    
    13    5   13 1    
    14    6   14 1    
    15    7   15 1    
    16    7   16 1    
    17    8   17 1    
    18    8   18 1    
    19    9   19 1    
    20    9   20 1    
    21    9   21 1    
@<TRIPOS>SUBSTRUCTURE
     1 PEA         1 PERM              0 ****  ****    0 ROOT 
@<TRIPOS>NORMAL
@<TRIPOS>ALT_TYPE
MMFF94_ALT_TYPE_SET 
MMFF94 7 CR 8 CR 1 CB 2 CB 3 CB 4 CB 5 CB 6 CB 10 HC 11 HC 12 HC 13 HC \
14 HC 15 HC 16 HC 17 HC 18 HC 19 HNR+ 20 HNR+ 21 HNR+ \
9 NR+ 
