#	Name:			4jxs_ligand
#	Creating user name:	suminyi
#	Creation time:		Sun Sep 30 06:51:12 2018

#	Modifying user name:	suminyi
#	Modification time:	Sun Sep 30 06:51:12 2018

@<TRIPOS>MOLECULE
4jxs_ligand
   31    32     1     1     0
SMALL
MMFF94_CHARGES


@<TRIPOS>ATOM
      1 C4         81.5360    4.5120   33.3570 C.ar      1 MOL        -0.1500 
      2 C1         82.3860    4.3260   34.4550 C.ar      1 MOL        -0.1500 
      3 C8         83.7770    4.4350   34.3160 C.ar      1 MOL        -0.1790 
      4 C9         84.7390    4.1480   35.4540 C.2       1 MOL         0.9790 
      5 O10        85.9290    4.1270   35.1700 O.co2     1 MOL        -0.9000 
      6 O11        84.3200    3.8050   36.5440 O.co2     1 MOL        -0.9000 
      7 C7         84.2820    4.8080   33.0660 C.ar      1 MOL        -0.1500 
      8 C5         83.4380    5.0030   31.9750 C.ar      1 MOL        -0.1500 
      9 C3         82.0580    4.8350   32.0990 C.ar      1 MOL        -0.1435 
     10 C2         81.1980    5.0950   30.8610 C.3       1 MOL         0.4992 
     11 N1         79.8050    4.6050   30.8950 N.am      1 MOL        -0.9137 
     12 S13        78.6960    5.7190   30.4350 S.o2      1 MOL         1.5010 
     13 O16        77.3620    5.1660   30.5720 O.2       1 MOL        -0.6500 
     14 O17        78.9410    6.8460   31.3220 O.2       1 MOL        -0.6500 
     15 C15        79.0510    6.3520   28.7960 C.2       1 MOL        -0.0630 
     16 C19        79.2360    7.7430   28.5370 C.2       1 MOL        -0.1500 
     17 C22        79.4170    8.0460   27.2210 C.2       1 MOL        -0.1100 
     18 S20        79.3450    6.6380   26.2160 S.3       1 MOL        -0.0800 
     19 C18        79.1430    5.6190   27.6170 C.2       1 MOL        -0.1920 
     20 C21        79.0440    4.1500   27.4560 C.2       1 MOL         1.0320 
     21 O24        79.0660    3.4210   28.4270 O.co2     1 MOL        -0.9000 
     22 O23        78.7540    3.7060   26.3650 O.co2     1 MOL        -0.9000 
     23 H          80.4590    4.4210   33.4970 H         1 MOL         0.1500 
     24 H1         81.9600    4.0950   35.4320 H         1 MOL         0.1500 
     25 H2         85.3540    4.9440   32.9460 H         1 MOL         0.1500 
     26 H3         83.8670    5.2870   31.0180 H         1 MOL         0.1500 
     27 H4         81.6870    4.6390   29.9950 H         1 MOL         0.0000 
     28 H5         81.2160    6.1750   30.6840 H         1 MOL         0.0000 
     29 H6         79.6740    3.8940   30.1640 H         1 MOL         0.4200 
     30 H7         79.2040    8.4750   29.3430 H         1 MOL         0.1500 
     31 H8         79.5500    9.0110   26.7560 H         1 MOL         0.1500 
@<TRIPOS>BOND
     1    1    2 ar   
     2    1    9 ar   
     3    2    3 ar   
     4    3    4 1    
     5    3    7 ar   
     6    4    5 ar   
     7    4    6 ar   
     8    7    8 ar   
     9    8    9 ar   
    10    9   10 1    
    11   10   11 1    
    12   11   12 am   
    13   12   13 2    
    14   12   14 2    
    15   12   15 1    
    16   15   16 1    
    17   15   19 2    
    18   16   17 2    
    19   17   18 1    
    20   18   19 1    
    21   19   20 1    
    22   20   21 ar   
    23   20   22 ar   
    24    1   23 1    
    25    2   24 1    
    26    7   25 1    
    27    8   26 1    
    28   10   27 1    
    29   10   28 1    
    30   11   29 1    
    31   16   30 1    
    32   17   31 1    
@<TRIPOS>SUBSTRUCTURE
     1 MOL         1 PERM              0 ****  ****    0 ROOT 
@<TRIPOS>NORMAL
@<TRIPOS>ALT_TYPE
MMFF94_ALT_TYPE_SET 
MMFF94 10 CR 17 C5A 19 C5A 15 C5B 16 C5B 1 CB 2 CB 3 CB 7 CB 8 CB 9 CB \
4 CO2M 20 CO2M 23 HC 24 HC 25 HC 26 HC 27 HC 28 HC 30 HC \
31 HC 29 HNSO 5 O2CM 6 O2CM 21 O2CM 22 O2CM 13 O2S 14 O2S \
11 NSO2 18 STHI 12 SO2N 
