#	Name:			4owm_ligand
#	Creating user name:	suminyi
#	Creation time:		Sun Sep 30 06:50:58 2018

#	Modifying user name:	suminyi
#	Modification time:	Sun Sep 30 06:50:58 2018

@<TRIPOS>MOLECULE
4owm_ligand
   16    16     1     1     0
SMALL
MMFF94_CHARGES


@<TRIPOS>ATOM
      1 OAB       -19.9290  -33.2930   19.1060 O.co2     1 MOL        -0.9000 
      2 CAH       -19.1960  -34.2070   18.7760 C.2       1 MOL         0.9790 
      3 OAC       -18.8510  -35.0210   19.6150 O.co2     1 MOL        -0.9000 
      4 CAK       -18.4500  -34.1190   17.4740 C.ar      1 MOL        -0.1790 
      5 CAG       -17.5760  -35.1560   17.1220 C.ar      1 MOL        -0.1500 
      6 CAE       -16.8020  -35.0690   15.9680 C.ar      1 MOL        -0.1500 
      7 CAF       -16.8940  -33.9380   15.1620 C.ar      1 MOL        -0.1500 
      8 CAJ       -17.7570  -32.9090   15.4900 C.ar      1 MOL         0.1900 
      9 FAD       -17.7950  -31.8100   14.7110 F         1 MOL        -0.1900 
     10 CAI       -18.5390  -32.9950   16.6330 C.ar      1 MOL         0.1000 
     11 NAA       -19.3120  -31.9220   16.9440 N.pl3     1 MOL        -0.9000 
     12 H         -17.4950  -36.0350   17.7600 H         1 MOL         0.1500 
     13 H1        -16.1240  -35.8750   15.6960 H         1 MOL         0.1500 
     14 H2        -16.3020  -33.8410   14.2690 H         1 MOL         0.1500 
     15 H3        -19.7610  -32.0260   17.8670 H         1 MOL         0.4000 
     16 H4        -18.9850  -31.0230   16.6270 H         1 MOL         0.4000 
@<TRIPOS>BOND
     1    1    2 ar   
     2    2    3 ar   
     3    2    4 1    
     4    4    5 ar   
     5    4   10 ar   
     6    5    6 ar   
     7    6    7 ar   
     8    7    8 ar   
     9    8    9 1    
    10    8   10 ar   
    11   10   11 1    
    12    5   12 1    
    13    6   13 1    
    14    7   14 1    
    15   11   15 1    
    16   11   16 1    
@<TRIPOS>SUBSTRUCTURE
     1 MOL         1 PERM              0 ****  ****    0 ROOT 
@<TRIPOS>NORMAL
@<TRIPOS>ALT_TYPE
MMFF94_ALT_TYPE_SET 
MMFF94 4 CB 5 CB 6 CB 7 CB 8 CB 10 CB 2 CO2M 12 HC 13 HC 14 HC 15 HNCC \
16 HNCC 1 O2CM 3 O2CM 11 NC=C 9 F 
