#	Name:			1h22_ligand
#	Creating user name:	suminyi
#	Creation time:		Sun Sep 30 06:51:10 2018

#	Modifying user name:	suminyi
#	Modification time:	Sun Sep 30 06:51:10 2018

@<TRIPOS>MOLECULE
1h22_ligand
   78    81     1     1     0
SMALL
MMFF94_CHARGES


@<TRIPOS>ATOM
      1 C1          4.3830   59.4290   71.4310 C.2       1 MOL         0.6156 
      2 N2          3.5640   58.4030   71.6570 N.am      1 MOL        -0.5390 
      3 C3          2.6290   58.3160   72.6620 C.2       1 MOL        -0.0292 
      4 C4          2.4750   59.3870   73.5250 C.2       1 MOL        -0.1382 
      5 C5          3.3680   60.5190   73.4310 C.2       1 MOL        -0.1500 
      6 C6          4.2890   60.5070   72.4070 C.2       1 MOL        -0.1356 
      7 O7          5.1240   59.4010   70.4710 O.2       1 MOL        -0.5700 
      8 C9          1.8430   57.0420   72.7990 C.3       1 MOL         0.1382 
      9 C10         1.4180   59.4360   74.6000 C.3       1 MOL         0.6412 
     10 C13         0.7440   58.0570   74.8230 C.3       1 MOL         0.0000 
     11 C14         0.5050   57.2540   73.5260 C.3       1 MOL         0.0000 
     12 N17         0.4910   60.5810   74.2600 N.4       1 MOL        -0.9060 
     13 C24        -0.2220   60.4500   72.9270 C.3       1 MOL         0.5030 
     14 C29         1.0640   68.1890   61.2820 C.2       1 MOL         0.6156 
     15 N30         2.3920   68.2580   61.2190 N.am      1 MOL        -0.5390 
     16 C31         3.2820   68.2270   62.2700 C.2       1 MOL        -0.0292 
     17 C32         2.7730   68.0820   63.5570 C.2       1 MOL        -0.1382 
     18 C33         1.3350   68.0360   63.7490 C.2       1 MOL        -0.1500 
     19 C34         0.5330   68.0910   62.6340 C.2       1 MOL        -0.1356 
     20 O35         0.4220   68.1580   60.2550 O.2       1 MOL        -0.5700 
     21 C36         4.7610   68.2900   61.9650 C.3       1 MOL         0.1382 
     22 C37         3.6720   68.0710   64.7750 C.3       1 MOL         0.6412 
     23 C38         5.1280   67.7390   64.3910 C.3       1 MOL         0.0000 
     24 C39         5.5830   68.6200   63.2190 C.3       1 MOL         0.0000 
     25 N40         3.1160   67.1220   65.7940 N.4       1 MOL        -0.9060 
     26 C41         3.9720   66.8590   67.0170 C.3       1 MOL         0.5030 
     27 C63        -0.8370   61.7740   72.4390 C.3       1 MOL         0.0000 
     28 C64         0.2020   62.8600   72.0620 C.3       1 MOL         0.0000 
     29 C65         1.1860   62.3960   70.9610 C.3       1 MOL         0.0000 
     30 C66         2.0260   63.5700   70.3970 C.3       1 MOL         0.0000 
     31 C67         3.4700   63.1340   70.0510 C.3       1 MOL         0.0000 
     32 C68         4.1890   64.0180   69.0000 C.3       1 MOL         0.0000 
     33 C69         4.0660   65.5460   69.2210 C.3       1 MOL         0.0000 
     34 C70         3.1580   66.2380   68.1720 C.3       1 MOL         0.0000 
     35 H1          3.6840   57.6070   71.0630 H         1 MOL         0.3700 
     36 H2          3.3140   61.3390   74.1410 H         1 MOL         0.1500 
     37 H3          5.0090   61.3030   72.2650 H         1 MOL         0.1500 
     38 H4          2.4450   56.3200   73.3610 H         1 MOL         0.0000 
     39 H5          1.6560   56.5930   71.8210 H         1 MOL         0.0000 
     40 H6          1.9280   59.7160   75.5300 H         1 MOL         0.0000 
     41 H7         -0.1970   58.1840   75.3620 H         1 MOL         0.0000 
     42 H8          1.3960   57.4630   75.4710 H         1 MOL         0.0000 
     43 H9         -0.1970   57.7720   72.8730 H         1 MOL         0.0000 
     44 H10         0.0620   56.2820   73.7640 H         1 MOL         0.0000 
     45 H11         1.0870   61.4230   74.2200 H         1 MOL         0.4500 
     46 H12        -0.1820   60.7410   75.0310 H         1 MOL         0.4500 
     47 H13        -1.0080   59.6960   73.0380 H         1 MOL         0.0000 
     48 H14         0.4960   60.0820   72.1870 H         1 MOL         0.0000 
     49 H15         2.7510   68.3560   60.2900 H         1 MOL         0.3700 
     50 H16         0.8970   67.9810   64.7400 H         1 MOL         0.1500 
     51 H17        -0.5510   68.0570   62.6940 H         1 MOL         0.1500 
     52 H18         4.9780   69.0430   61.2020 H         1 MOL         0.0000 
     53 H19         5.1010   67.3360   61.5530 H         1 MOL         0.0000 
     54 H20         3.6530   69.0750   65.2170 H         1 MOL         0.0000 
     55 H21         5.2060   66.6890   64.1020 H         1 MOL         0.0000 
     56 H22         5.7950   67.9070   65.2370 H         1 MOL         0.0000 
     57 H23         5.4710   69.6780   63.4710 H         1 MOL         0.0000 
     58 H24         6.6410   68.4420   63.0030 H         1 MOL         0.0000 
     59 H25         2.2040   67.5050   66.0860 H         1 MOL         0.4500 
     60 H26         2.9160   66.2470   65.2870 H         1 MOL         0.4500 
     61 H27         4.7900   66.1940   66.7190 H         1 MOL         0.0000 
     62 H28         4.4090   67.8090   67.3460 H         1 MOL         0.0000 
     63 H29        -1.5020   62.1600   73.2120 H         1 MOL         0.0000 
     64 H30        -1.4610   61.5760   71.5670 H         1 MOL         0.0000 
     65 H31         0.7630   63.1640   72.9490 H         1 MOL         0.0000 
     66 H32        -0.3400   63.7450   71.7160 H         1 MOL         0.0000 
     67 H33         0.6310   61.9390   70.1370 H         1 MOL         0.0000 
     68 H34         1.8400   61.6260   71.3690 H         1 MOL         0.0000 
     69 H35         2.0690   64.3850   71.1230 H         1 MOL         0.0000 
     70 H36         1.5270   63.9640   69.5130 H         1 MOL         0.0000 
     71 H37         3.4670   62.1060   69.6770 H         1 MOL         0.0000 
     72 H38         4.0550   63.1310   70.9730 H         1 MOL         0.0000 
     73 H39         3.8430   63.7450   68.0000 H         1 MOL         0.0000 
     74 H40         5.2500   63.7640   69.0350 H         1 MOL         0.0000 
     75 H41         5.0650   65.9760   69.1700 H         1 MOL         0.0000 
     76 H42         3.7030   65.7630   70.2290 H         1 MOL         0.0000 
     77 H43         2.5870   67.0330   68.6620 H         1 MOL         0.0000 
     78 H44         2.4300   65.5220   67.7850 H         1 MOL         0.0000 
@<TRIPOS>BOND
     1    1    7 2    
     2    1    6 1    
     3    1    2 am   
     4    2    3 am   
     5    3    8 1    
     6    3    4 2    
     7    4    9 1    
     8    4    5 1    
     9    5    6 2    
    10    9   12 1    
    11    9   10 1    
    12   10   11 1    
    13   11    8 1    
    14   12   13 1    
    15   13   27 1    
    16   27   28 1    
    17   28   29 1    
    18   29   30 1    
    19   30   31 1    
    20   31   32 1    
    21   32   33 1    
    22   33   34 1    
    23   34   26 1    
    24   26   25 1    
    25   25   22 1    
    26   22   23 1    
    27   22   17 1    
    28   17   18 1    
    29   17   16 2    
    30   16   21 1    
    31   16   15 am   
    32   15   14 am   
    33   14   20 2    
    34   14   19 1    
    35   19   18 2    
    36   21   24 1    
    37   24   23 1    
    38    2   35 1    
    39    5   36 1    
    40    6   37 1    
    41    8   38 1    
    42    8   39 1    
    43    9   40 1    
    44   10   41 1    
    45   10   42 1    
    46   11   43 1    
    47   11   44 1    
    48   12   45 1    
    49   12   46 1    
    50   13   47 1    
    51   13   48 1    
    52   15   49 1    
    53   18   50 1    
    54   19   51 1    
    55   21   52 1    
    56   21   53 1    
    57   22   54 1    
    58   23   55 1    
    59   23   56 1    
    60   24   57 1    
    61   24   58 1    
    62   25   59 1    
    63   25   60 1    
    64   26   61 1    
    65   26   62 1    
    66   27   63 1    
    67   27   64 1    
    68   28   65 1    
    69   28   66 1    
    70   29   67 1    
    71   29   68 1    
    72   30   69 1    
    73   30   70 1    
    74   31   71 1    
    75   31   72 1    
    76   32   73 1    
    77   32   74 1    
    78   33   75 1    
    79   33   76 1    
    80   34   77 1    
    81   34   78 1    
@<TRIPOS>SUBSTRUCTURE
     1 MOL         1 PERM              0 ****  ****    0 ROOT 
@<TRIPOS>NORMAL
@<TRIPOS>ALT_TYPE
MMFF94_ALT_TYPE_SET 
MMFF94 8 CR 9 CR 10 CR 11 CR 13 CR 21 CR 22 CR 23 CR 24 CR 26 CR 27 CR \
28 CR 29 CR 30 CR 31 CR 32 CR 33 CR 34 CR 1 C=ON 14 C=ON \
3 C=C 4 C=C 5 C=C 6 C=C 16 C=C 17 C=C 18 C=C 19 C=C \
36 HC 37 HC 38 HC 39 HC 40 HC 41 HC 42 HC 43 HC 44 HC \
47 HC 48 HC 50 HC 51 HC 52 HC 53 HC 54 HC 55 HC 56 HC \
57 HC 58 HC 61 HC 62 HC 63 HC 64 HC 65 HC 66 HC 67 HC \
68 HC 69 HC 70 HC 71 HC 72 HC 73 HC 74 HC 75 HC 76 HC \
77 HC 78 HC 35 HNCC 49 HNCC 45 HNR+ 46 HNR+ 59 HNR+ 60 HNR+ \
7 O=CN 20 O=CN 12 NR+ 25 NR+ 2 NC=O 15 NC=O 
