#	Name:			4j21_ligand
#	Creating user name:	suminyi
#	Creation time:		Sun Sep 30 06:50:58 2018

#	Modifying user name:	suminyi
#	Modification time:	Sun Sep 30 06:50:58 2018

@<TRIPOS>MOLECULE
4j21_ligand
   33    35     1     1     0
SMALL
MMFF94_CHARGES


@<TRIPOS>ATOM
      1 C4        -12.5540    1.7600   14.0570 C.2       1 MOL         0.6156 
      2 C8        -12.1180    2.5550   11.8150 C.ar      1 MOL         0.1170 
      3 C10       -11.8210    3.1800    9.5070 C.ar      1 MOL         0.0000 
      4 C13       -10.3710    3.0060    6.0200 C.ar      1 MOL        -0.1500 
      5 C17       -12.6520    2.1120    7.3430 C.ar      1 MOL         0.1770 
      6 C20       -11.9500    4.8720   11.2540 C.ar      1 MOL        -0.1500 
      7 C21       -12.1160    3.8870   12.2260 C.ar      1 MOL         0.0284 
      8 C1        -12.3250    5.6110   14.2320 C.3       1 MOL         0.1382 
      9 C2        -12.3030    4.2290   13.6280 C.2       1 MOL        -0.1666 
     10 C3        -12.5120    3.1590   14.4790 C.2       1 MOL        -0.1356 
     11 O5        -12.8350    0.8170   14.7600 O.2       1 MOL        -0.5700 
     12 N6        -12.3170    1.5490   12.7730 N.am      1 MOL        -0.5470 
     13 C9        -11.9750    2.1910   10.4830 C.ar      1 MOL        -0.1500 
     14 C11       -11.6680    2.8250    8.0610 C.ar      1 MOL         0.0000 
     15 C12       -10.5150    3.2530    7.3820 C.ar      1 MOL        -0.1500 
     16 C14       -11.3740    2.3500    5.3230 C.ar      1 MOL         0.1000 
     17 N15       -11.2450    2.1540    3.9920 N.pl3     1 MOL        -0.9000 
     18 C16       -12.5040    1.8940    5.9770 C.ar      1 MOL        -0.1500 
     19 Cl        -14.1050    1.5260    8.0690 Cl        1 MOL        -0.1770 
     20 C19       -11.8000    4.5250    9.9100 C.ar      1 MOL        -0.1500 
     21 H1         -9.4730    3.3370    5.5040 H         1 MOL         0.1500 
     22 H2        -11.9630    5.9200   11.5330 H         1 MOL         0.1500 
     23 H3        -12.0670    5.5910   15.2940 H         1 MOL         0.0000 
     24 H4        -13.3100    6.0660   14.1410 H         1 MOL         0.0000 
     25 H5        -11.6110    6.2760   13.7440 H         1 MOL         0.0000 
     26 H6        -12.6650    3.2850   15.5420 H         1 MOL         0.1500 
     27 H7        -12.3740    0.5970   12.4460 H         1 MOL         0.3700 
     28 H8        -11.9940    1.1390   10.2100 H         1 MOL         0.1500 
     29 H9         -9.7240    3.7730    7.9180 H         1 MOL         0.1500 
     30 H10       -11.9980    1.7540    3.4530 H         1 MOL         0.4000 
     31 H11       -10.3580    2.3630    3.5530 H         1 MOL         0.4000 
     32 H12       -13.2790    1.3640    5.4300 H         1 MOL         0.1500 
     33 H13       -11.7070    5.3110    9.1690 H         1 MOL         0.1500 
@<TRIPOS>BOND
     1    1   10 1    
     2    1   11 2    
     3   12    1 am   
     4    2    7 ar   
     5    2   12 1    
     6   13    2 ar   
     7    3   13 ar   
     8   14    3 1    
     9    3   20 ar   
    10   15    4 ar   
    11    4   16 ar   
    12   14    5 ar   
    13    5   18 ar   
    14    5   19 1    
    15    6    7 ar   
    16   20    6 ar   
    17    7    9 1    
    18    9    8 1    
    19    9   10 2    
    20   14   15 ar   
    21   16   17 1    
    22   16   18 ar   
    23    4   21 1    
    24    6   22 1    
    25    8   23 1    
    26    8   24 1    
    27    8   25 1    
    28   10   26 1    
    29   12   27 1    
    30   13   28 1    
    31   15   29 1    
    32   17   30 1    
    33   17   31 1    
    34   18   32 1    
    35   20   33 1    
@<TRIPOS>SUBSTRUCTURE
     1 MOL         1 PERM              0 ****  ****    0 ROOT 
@<TRIPOS>NORMAL
@<TRIPOS>ALT_TYPE
MMFF94_ALT_TYPE_SET 
MMFF94 8 CR 2 CB 3 CB 4 CB 5 CB 6 CB 7 CB 13 CB 14 CB 15 CB 16 CB 18 CB \
20 CB 1 C=ON 9 C=C 10 C=C 21 HC 22 HC 23 HC 24 HC 25 HC \
26 HC 28 HC 29 HC 32 HC 33 HC 27 HNCC 30 HNCC 31 HNCC \
11 O=CN 12 NC=O 17 NC=C 19 CL 
