#	Name:			1pxn_ligand
#	Creating user name:	suminyi
#	Creation time:		Sun Sep 30 06:50:57 2018

#	Modifying user name:	suminyi
#	Modification time:	Sun Sep 30 06:50:57 2018

@<TRIPOS>MOLECULE
1pxn_ligand
   37    39     1     1     0
SMALL
MMFF94_CHARGES


@<TRIPOS>ATOM
      1 C6A        -2.5480    4.7790   25.8230 C.3       1 MOL         0.1810 
      2 C1A        -1.6150    5.8970   25.4610 C.2       1 MOL         0.0462 
      3 N2A        -2.0630    6.8840   24.6160 N.2       1 MOL        -0.5653 
      4 C3A        -1.1030    7.7760   24.4220 C.2       1 MOL         0.4621 
      5 N7A        -1.3800    8.8100   23.6010 N.pl3     1 MOL        -0.8531 
      6 C8A        -0.5730   10.0280   23.4980 C.3       1 MOL         0.3691 
      7 C5A        -0.3560    6.1270   25.9610 C.2       1 MOL        -0.0130 
      8 S4A         0.3280    7.6160   25.3660 S.3       1 MOL        -0.0800 
      9 C4          0.3660    5.2880   26.8800 C.ar      1 MOL         0.3630 
     10 C5          0.1650    3.9420   27.1280 C.ar      1 MOL        -0.1500 
     11 N3          1.3930    5.9210   27.4320 N.ar      1 MOL        -0.6200 
     12 C2          2.2280    5.2330   28.1880 C.ar      1 MOL         0.7200 
     13 N1          2.1180    3.9470   28.5070 N.ar      1 MOL        -0.6200 
     14 C6          1.0720    3.3100   27.9550 C.ar      1 MOL         0.1600 
     15 N7          3.3520    5.8420   28.6230 N.pl3     1 MOL        -0.6000 
     16 C1B         3.9740    7.0380   28.3200 C.ar      1 MOL         0.1000 
     17 C2B         3.5990    7.8360   27.2330 C.ar      1 MOL        -0.1500 
     18 C3B         4.1720    9.0790   27.0140 C.ar      1 MOL        -0.1500 
     19 C6B         5.0310    7.4790   29.1210 C.ar      1 MOL        -0.1500 
     20 C5B         5.6380    8.7220   28.8860 C.ar      1 MOL        -0.1500 
     21 C4B         5.1780    9.5310   27.8460 C.ar      1 MOL         0.0825 
     22 O7B         5.6560   10.7770   27.6090 O.3       1 MOL        -0.5325 
     23 H1         -2.5090    4.5410   26.8860 H         1 MOL         0.0000 
     24 H2         -2.3240    3.8860   25.2380 H         1 MOL         0.0000 
     25 H3         -3.5760    5.0610   25.5900 H         1 MOL         0.0000 
     26 H4         -2.2600    8.7190   23.1190 H         1 MOL         0.4000 
     27 H5         -1.2000   10.8680   23.1860 H         1 MOL         0.0000 
     28 H6          0.2210    9.8910   22.7620 H         1 MOL         0.0000 
     29 H7         -0.1160   10.2720   24.4610 H         1 MOL         0.0000 
     30 H8         -0.5980    3.3580   26.6400 H         1 MOL         0.1500 
     31 H9          1.0160    2.2470   28.1370 H         1 MOL         0.1500 
     32 H10         3.8690    5.1920   29.2130 H         1 MOL         0.4000 
     33 H11         2.8370    7.5320   26.5360 H         1 MOL         0.1500 
     34 H12         3.8060    9.6930   26.1930 H         1 MOL         0.1500 
     35 H13         5.3630    6.8600   29.9510 H         1 MOL         0.1500 
     36 H14         6.4340    9.0660   29.5410 H         1 MOL         0.1500 
     37 H15         5.0630   11.1290   26.9030 H         1 MOL         0.4500 
@<TRIPOS>BOND
     1    1    2 1    
     2    2    3 1    
     3    2    7 2    
     4    3    4 2    
     5    4    5 1    
     6    4    8 1    
     7    5    6 1    
     8    7    8 1    
     9    7    9 1    
    10    9   10 ar   
    11    9   11 ar   
    12   10   14 ar   
    13   11   12 ar   
    14   12   13 ar   
    15   12   15 1    
    16   13   14 ar   
    17   15   16 1    
    18   16   17 ar   
    19   16   19 ar   
    20   17   18 ar   
    21   18   21 ar   
    22   19   20 ar   
    23   20   21 ar   
    24   21   22 1    
    25    1   23 1    
    26    1   24 1    
    27    1   25 1    
    28    5   26 1    
    29    6   27 1    
    30    6   28 1    
    31    6   29 1    
    32   10   30 1    
    33   14   31 1    
    34   15   32 1    
    35   17   33 1    
    36   18   34 1    
    37   19   35 1    
    38   20   36 1    
    39   22   37 1    
@<TRIPOS>SUBSTRUCTURE
     1 MOL         1 PERM              0 ****  ****    0 ROOT 
@<TRIPOS>NORMAL
@<TRIPOS>ALT_TYPE
MMFF94_ALT_TYPE_SET 
MMFF94 1 CR 6 CR 4 C5A 7 C5A 2 C5B 9 CB 10 CB 12 CB 14 CB 16 CB 17 CB \
18 CB 19 CB 20 CB 21 CB 23 HC 24 HC 25 HC 27 HC 28 HC \
29 HC 30 HC 31 HC 33 HC 34 HC 35 HC 36 HC 32 HNCC 26 HNCN \
37 HOCC 22 OC=C 11 NPYD 13 NPYD 3 N5B 5 NC=N 15 NC=N \
8 STHI 
