#	Name:			2w66_ligand
#	Creating user name:	suminyi
#	Creation time:		Sun Sep 30 06:51:02 2018

#	Modifying user name:	suminyi
#	Modification time:	Sun Sep 30 06:51:02 2018

@<TRIPOS>MOLECULE
2w66_ligand
   35    35     1     1     0
SMALL
MMFF94_CHARGES


@<TRIPOS>ATOM
      1 O9          5.8890  -10.2110    5.4260 O.2       1 MOL        -0.5700 
      2 C9          7.0230  -10.2230    5.8710 C.2       1 MOL         0.5690 
      3 C10         7.3900   -9.5880    7.1770 C.3       1 MOL         0.0610 
      4 N2          8.0370  -10.8290    5.2350 N.am      1 MOL        -0.7301 
      5 C5          8.0100  -11.5700    3.9570 C.3       1 MOL         0.3001 
      6 C6          7.4190  -12.9870    4.1440 C.3       1 MOL         0.2800 
      7 O6          7.7010  -13.8730    3.0520 O.3       1 MOL        -0.6800 
      8 C4          7.5320  -10.6580    2.7810 C.3       1 MOL         0.2800 
      9 O4          8.7310  -10.1760    2.1560 O.3       1 MOL        -0.6800 
     10 C3          6.5960  -11.2500    1.6870 C.3       1 MOL         0.2800 
     11 O3          6.4000  -10.2000    0.7170 O.3       1 MOL        -0.6800 
     12 C2          5.2060  -11.6720    2.2660 C.3       1 MOL         0.5030 
     13 C8          4.1410  -11.8120    1.1480 C.3       1 MOL         0.2800 
     14 O8          4.3460  -13.0420    0.4300 O.3       1 MOL        -0.6800 
     15 N1          5.2190  -12.9960    2.9910 N.4       1 MOL        -0.9060 
     16 C7          5.9130  -13.0050    4.3220 C.3       1 MOL         0.5030 
     17 H1          8.3020   -9.0030    7.0660 H         1 MOL         0.0000 
     18 H2          7.5620  -10.3580    7.9290 H         1 MOL         0.0000 
     19 H3          6.5880   -8.9320    7.5140 H         1 MOL         0.0000 
     20 H4          8.9630  -10.7120    5.6500 H         1 MOL         0.3700 
     21 H5          9.0650  -11.7880    3.7490 H         1 MOL         0.0000 
     22 H6          7.8930  -13.4000    5.0390 H         1 MOL         0.0000 
     23 H7          8.7040  -14.1470    3.2270 H         1 MOL         0.4000 
     24 H8          7.0040   -9.8010    3.2070 H         1 MOL         0.0000 
     25 H9          8.5140   -9.3860    1.5910 H         1 MOL         0.4000 
     26 H10         7.0830  -12.1050    1.2090 H         1 MOL         0.0000 
     27 H11         6.4480  -10.5870   -0.2360 H         1 MOL         0.4000 
     28 H12         4.8850  -10.8900    2.9650 H         1 MOL         0.0000 
     29 H13         4.1670  -10.9720    0.4640 H         1 MOL         0.0000 
     30 H14         3.1480  -11.8160    1.6010 H         1 MOL         0.0000 
     31 H15         4.5030  -12.7820   -0.5650 H         1 MOL         0.4000 
     32 H16         5.8010  -13.6310    2.3920 H         1 MOL         0.4500 
     33 H17         4.2730  -13.3910    3.0080 H         1 MOL         0.4500 
     34 H18         5.5520  -12.1990    4.9550 H         1 MOL         0.0000 
     35 H19         5.6780  -13.9570    4.7980 H         1 MOL         0.0000 
@<TRIPOS>BOND
     1    1    2 2    
     2    2    3 1    
     3    2    4 am   
     4    4    5 1    
     5    5    6 1    
     6    5    8 1    
     7    6    7 1    
     8    6   16 1    
     9    8    9 1    
    10    8   10 1    
    11   10   11 1    
    12   10   12 1    
    13   12   13 1    
    14   12   15 1    
    15   13   14 1    
    16   15   16 1    
    17    3   17 1    
    18    3   18 1    
    19    3   19 1    
    20    4   20 1    
    21    5   21 1    
    22    6   22 1    
    23    7   23 1    
    24    8   24 1    
    25    9   25 1    
    26   10   26 1    
    27   11   27 1    
    28   12   28 1    
    29   13   29 1    
    30   13   30 1    
    31   14   31 1    
    32   15   32 1    
    33   15   33 1    
    34   16   34 1    
    35   16   35 1    
@<TRIPOS>SUBSTRUCTURE
     1 MOL         1 PERM              0 ****  ****    0 ROOT 
@<TRIPOS>NORMAL
@<TRIPOS>ALT_TYPE
MMFF94_ALT_TYPE_SET 
MMFF94 3 CR 5 CR 6 CR 8 CR 10 CR 12 CR 13 CR 16 CR 2 C=ON 17 HC 18 HC \
19 HC 21 HC 22 HC 24 HC 26 HC 28 HC 29 HC 30 HC 34 HC \
35 HC 20 HNCO 32 HNR+ 33 HNR+ 23 HOR 25 HOR 27 HOR 31 HOR \
1 O=CN 7 OR 9 OR 11 OR 14 OR 15 NR+ 4 NC=O 
