#	Name:			3u5j_ligand
#	Creating user name:	suminyi
#	Creation time:		Sun Sep 30 06:51:01 2018

#	Modifying user name:	suminyi
#	Modification time:	Sun Sep 30 06:51:01 2018

@<TRIPOS>MOLECULE
3u5j_ligand
   35    38     1     1     0
SMALL
MMFF94_CHARGES


@<TRIPOS>ATOM
      1 CAS        28.9890   15.8960   -1.0450 C.ar      1 MOL         0.0862 
      2 CAJ        27.6920   15.3730   -0.8950 C.ar      1 MOL        -0.1500 
      3 CAP        27.1020   15.2430    0.3610 C.ar      1 MOL         0.1770 
      4 ClAB       25.5500   14.5100    0.5480 Cl        1 MOL        -0.1770 
      5 CAH        27.7800   15.6570    1.4940 C.ar      1 MOL        -0.1500 
      6 CAI        29.0560   16.1820    1.3730 C.ar      1 MOL        -0.1500 
      7 CAU        29.6740   16.3030    0.1240 C.ar      1 MOL        -0.0230 
      8 NAV        30.9250   16.8460    0.0650 N.pl3     1 MOL         0.3262 
      9 CAR        31.4630   17.7690    0.9250 C.2       1 MOL         0.0065 
     10 CAA        30.7420   18.8460    1.6830 C.3       1 MOL         0.1800 
     11 NAM        32.7930   17.6330    0.9020 N.2       1 MOL        -0.3381 
     12 NAN        33.1050   16.6150    0.0120 N.2       1 MOL        -0.3381 
     13 CAT        31.9550   16.1610   -0.4930 C.2       1 MOL         0.0065 
     14 CAK        31.7830   15.1290   -1.5590 C.3       1 MOL         0.4260 
     15 NAL        30.8570   15.6330   -2.6160 N.2       1 MOL        -0.6960 
     16 CAO        29.6060   15.8790   -2.4220 C.2       1 MOL         0.2776 
     17 CAQ        28.7990   16.2710   -3.6320 C.ar      1 MOL         0.0862 
     18 CAF        27.5530   16.9160   -3.5310 C.ar      1 MOL        -0.1500 
     19 CAD        26.8940   17.3980   -4.6600 C.ar      1 MOL        -0.1500 
     20 CAC        27.4450   17.2220   -5.9230 C.ar      1 MOL        -0.1500 
     21 CAE        28.6660   16.5730   -6.0530 C.ar      1 MOL        -0.1500 
     22 CAG        29.3400   16.1140   -4.9210 C.ar      1 MOL        -0.1500 
     23 H1         27.1580   14.9750   -1.7560 H         1 MOL         0.1500 
     24 H2         27.3210   15.5650    2.4770 H         1 MOL         0.1500 
     25 H3         29.5510   16.5000    2.2800 H         1 MOL         0.1500 
     26 H4         31.3600   19.7440    1.7330 H         1 MOL         0.0000 
     27 H5         30.5270   18.5340    2.7060 H         1 MOL         0.0000 
     28 H6         29.8030   19.1140    1.1980 H         1 MOL         0.0000 
     29 H7         31.3730   14.2160   -1.1240 H         1 MOL         0.0000 
     30 H8         32.7490   14.8920   -2.0120 H         1 MOL         0.0000 
     31 H9         27.1160   17.1450   -2.5660 H         1 MOL         0.1500 
     32 H10        25.9610   17.9450   -4.5530 H         1 MOL         0.1500 
     33 H11        26.9330   17.6050   -6.8070 H         1 MOL         0.1500 
     34 H12        29.1010   16.4420   -7.0410 H         1 MOL         0.1500 
     35 H13        30.3100   15.6390   -5.0600 H         1 MOL         0.1500 
@<TRIPOS>BOND
     1    1    2 ar   
     2    1    7 ar   
     3    1   16 1    
     4    2    3 ar   
     5    3    4 1    
     6    3    5 ar   
     7    5    6 ar   
     8    6    7 ar   
     9    7    8 1    
    10    8    9 1    
    11    8   13 1    
    12    9   10 1    
    13    9   11 2    
    14   11   12 1    
    15   12   13 2    
    16   13   14 1    
    17   14   15 1    
    18   15   16 2    
    19   16   17 1    
    20   17   18 ar   
    21   17   22 ar   
    22   18   19 ar   
    23   19   20 ar   
    24   20   21 ar   
    25   21   22 ar   
    26    2   23 1    
    27    5   24 1    
    28    6   25 1    
    29   10   26 1    
    30   10   27 1    
    31   10   28 1    
    32   14   29 1    
    33   14   30 1    
    34   18   31 1    
    35   19   32 1    
    36   20   33 1    
    37   21   34 1    
    38   22   35 1    
@<TRIPOS>SUBSTRUCTURE
     1 MOL         1 PERM              0 ****  ****    0 ROOT 
@<TRIPOS>NORMAL
@<TRIPOS>ALT_TYPE
MMFF94_ALT_TYPE_SET 
MMFF94 10 CR 14 CR 9 C5A 13 C5A 1 CB 2 CB 3 CB 5 CB 6 CB 7 CB 17 CB \
18 CB 19 CB 20 CB 21 CB 22 CB 16 C=N 23 HC 24 HC 25 HC \
26 HC 27 HC 28 HC 29 HC 30 HC 31 HC 32 HC 33 HC 34 HC \
35 HC 8 NPYL 11 N5B 12 N5B 15 N=C 4 CL 
