#	Name:			3u5j_ligand
#	Creating user name:	suminyi
#	Creation time:		Sun Sep 30 06:48:53 2018

#	Modifying user name:	suminyi
#	Modification time:	Sun Sep 30 06:48:53 2018

@<TRIPOS>MOLECULE
3u5j_ligand
   35    38     1     1     0
SMALL
MMFF94_CHARGES


@<TRIPOS>ATOM
      1 CAS        29.1210   15.7270   -1.1820 C.ar      1 MOL         0.0862 
      2 CAJ        27.8430   15.1590   -1.0530 C.ar      1 MOL        -0.1500 
      3 CAP        27.2860   15.0830    0.2170 C.ar      1 MOL         0.1770 
      4 CLAB       25.7010   14.3890    0.4320 Cl        1 MOL        -0.1770 
      5 CAH        27.9150   15.5780    1.3660 C.ar      1 MOL        -0.1500 
      6 CAI        29.1920   16.1500    1.2240 C.ar      1 MOL        -0.1500 
      7 CAU        29.7630   16.2300   -0.0400 C.ar      1 MOL        -0.0230 
      8 NAV        31.0230   16.8100   -0.0460 N.pl3     1 MOL         0.3262 
      9 CAR        31.5330   17.8720    0.6330 C.2       1 MOL         0.0065 
     10 CAA        30.8060   18.8220    1.6030 C.3       1 MOL         0.1800 
     11 NAM        32.8150   18.0370    0.2990 N.2       1 MOL        -0.3381 
     12 NAN        33.1510   17.1120   -0.5260 N.2       1 MOL        -0.3381 
     13 CAT        32.0580   16.3490   -0.7580 C.2       1 MOL         0.0065 
     14 CAK        31.9560   15.2150   -1.7300 C.3       1 MOL         0.4260 
     15 NAL        30.9790   15.6910   -2.7460 N.2       1 MOL        -0.6960 
     16 CAO        29.6510   15.7770   -2.5090 C.2       1 MOL         0.2776 
     17 CAQ        28.8590   16.2640   -3.6140 C.ar      1 MOL         0.0862 
     18 CAF        27.6920   16.9910   -3.3980 C.ar      1 MOL        -0.1500 
     19 CAD        26.9580   17.5330   -4.4550 C.ar      1 MOL        -0.1500 
     20 CAC        27.3430   17.3280   -5.7770 C.ar      1 MOL        -0.1500 
     21 CAE        28.4910   16.5930   -5.9960 C.ar      1 MOL        -0.1500 
     22 CAG        29.2270   16.0660   -4.9390 C.ar      1 MOL        -0.1500 
     23 H1         27.3067   14.7904   -1.9199 H         1 MOL         0.1500 
     24 H2         27.4325   15.5220    2.3351 H         1 MOL         0.1500 
     25 H3         29.7246   16.5241    2.0908 H         1 MOL         0.1500 
     26 H4         31.5144   19.5752    1.9783 H         1 MOL         0.0000 
     27 H5         30.4026   18.2449    2.4481 H         1 MOL         0.0000 
     28 H6         29.9819   19.3245    1.0754 H         1 MOL         0.0000 
     29 H7         31.5885   14.3059   -1.2315 H         1 MOL         0.0000 
     30 H8         32.9321   15.0098   -2.1938 H         1 MOL         0.0000 
     31 H9         27.3437   17.1404   -2.3824 H         1 MOL         0.1500 
     32 H10        26.0738   18.1231   -4.2427 H         1 MOL         0.1500 
     33 H11        26.7647   17.7293   -6.6013 H         1 MOL         0.1500 
     34 H12        28.8261   16.4228   -7.0128 H         1 MOL         0.1500 
     35 H13        30.1148   15.4831   -5.1562 H         1 MOL         0.1500 
@<TRIPOS>BOND
     1    1    2 ar   
     2    1    7 ar   
     3    1   16 1    
     4    2    3 ar   
     5    3    4 1    
     6    3    5 ar   
     7    5    6 ar   
     8    6    7 ar   
     9    7    8 1    
    10    8    9 1    
    11    8   13 1    
    12    9   10 1    
    13    9   11 2    
    14   11   12 1    
    15   12   13 2    
    16   13   14 1    
    17   14   15 1    
    18   15   16 2    
    19   16   17 1    
    20   17   18 ar   
    21   17   22 ar   
    22   18   19 ar   
    23   19   20 ar   
    24   20   21 ar   
    25   21   22 ar   
    26    2   23 1    
    27    5   24 1    
    28    6   25 1    
    29   10   26 1    
    30   10   27 1    
    31   10   28 1    
    32   14   29 1    
    33   14   30 1    
    34   18   31 1    
    35   19   32 1    
    36   20   33 1    
    37   21   34 1    
    38   22   35 1    
@<TRIPOS>SUBSTRUCTURE
     1 MOL         1 PERM              0 ****  ****    0 ROOT 
@<TRIPOS>NORMAL
@<TRIPOS>ALT_TYPE
MMFF94_ALT_TYPE_SET 
MMFF94 10 CR 14 CR 9 C5A 13 C5A 1 CB 2 CB 3 CB 5 CB 6 CB 7 CB 17 CB \
18 CB 19 CB 20 CB 21 CB 22 CB 16 C=N 23 HC 24 HC 25 HC \
26 HC 27 HC 28 HC 29 HC 30 HC 31 HC 32 HC 33 HC 34 HC \
35 HC 8 NPYL 11 N5B 12 N5B 15 N=C 4 CL 
