#	Name:			3fv2_ligand
#	Creating user name:	suminyi
#	Creation time:		Sun Sep 30 06:48:44 2018

#	Modifying user name:	suminyi
#	Modification time:	Sun Sep 30 06:48:44 2018

@<TRIPOS>MOLECULE
3fv2_ligand
   36    37     1     1     0
SMALL
MMFF94_CHARGES


@<TRIPOS>ATOM
      1 O          -3.3740   14.3160   17.3480 O.co2     1 NDZ        -0.9000 
      2 C          -4.0420   15.1370   18.0250 C.2       1 NDZ         0.9060 
      3 OXT        -3.5440   16.1570   18.5470 O.co2     1 NDZ        -0.9000 
      4 CA         -5.5100   14.9030   18.2720 C.3       1 NDZ         0.3970 
      5 N          -5.9230   13.6230   17.7090 N.4       1 NDZ        -0.8530 
      6 CB         -5.7850   15.0030   19.7730 C.3       1 NDZ         0.0000 
      7 CAJ        -7.2530   15.2080   20.1480 C.3       1 NDZ         0.1740 
      8 CAD        -7.8230   16.4930   19.5790 C.2       1 NDZ         0.9060 
      9 OAA        -9.0390   16.4910   19.2390 O.co2     1 NDZ        -0.9000 
     10 OAE        -7.0590   17.4880   19.4470 O.co2     1 NDZ        -0.9000 
     11 CAR        -7.4110   15.1890   21.6760 C.3       1 NDZ         0.0000 
     12 OAI        -8.0480   14.1220   19.6570 O.3       1 NDZ        -0.5600 
     13 CAH        -8.3820   13.2310   20.7160 C.3       1 NDZ         0.2800 
     14 CAQ        -8.5000   14.1530   21.9240 C.3       1 NDZ         0.2800 
     15 OAP        -9.7640   14.8320   21.9940 O.3       1 NDZ        -0.5600 
     16 CAO       -10.9150   14.0000   21.8060 C.3       1 NDZ         0.2800 
     17 CAF       -10.8710   13.3470   20.4260 C.3       1 NDZ         0.2800 
     18 OAB       -10.8380   14.3750   19.4220 O.3       1 NDZ        -0.6800 
     19 CAG        -9.6370   12.4590   20.3260 C.3       1 NDZ         0.2800 
     20 OAC        -9.4990   11.9160   19.0000 O.3       1 NDZ        -0.6800 
     21 H1         -6.0815   15.6947   17.7656 H         1 NDZ         0.0000 
     22 H2         -6.9058   13.4813   17.8821 H         1 NDZ         0.4500 
     23 H3         -5.3954   12.8803   18.1403 H         1 NDZ         0.4500 
     24 H4         -5.7534   13.6226   16.7154 H         1 NDZ         0.4500 
     25 H5         -5.2096   15.8524   20.1697 H         1 NDZ         0.0000 
     26 H6         -5.4386   14.0724   20.2463 H         1 NDZ         0.0000 
     27 H7         -7.7195   16.1767   22.0490 H         1 NDZ         0.0000 
     28 H8         -6.4704   14.8908   22.1622 H         1 NDZ         0.0000 
     29 H9         -7.5724   12.5069   20.8897 H         1 NDZ         0.0000 
     30 H10        -8.3266   13.5961   22.8566 H         1 NDZ         0.0000 
     31 H11       -11.8246   14.6130   21.8895 H         1 NDZ         0.0000 
     32 H12       -10.9281   13.2171   22.5786 H         1 NDZ         0.0000 
     33 H13       -11.7710   12.7308   20.2834 H         1 NDZ         0.0000 
     34 H14       -10.0652   14.9133   19.5468 H         1 NDZ         0.4000 
     35 H15        -9.7594   11.6221   21.0293 H         1 NDZ         0.0000 
     36 H16        -9.4153   12.6267   18.3751 H         1 NDZ         0.4000 
@<TRIPOS>BOND
     1    1    2 ar   
     2    2    3 ar   
     3    2    4 1    
     4    4    5 1    
     5    4    6 1    
     6    6    7 1    
     7    7    8 1    
     8    7   11 1    
     9    7   12 1    
    10    8    9 ar   
    11    8   10 ar   
    12   11   14 1    
    13   12   13 1    
    14   13   14 1    
    15   13   19 1    
    16   14   15 1    
    17   15   16 1    
    18   16   17 1    
    19   17   18 1    
    20   17   19 1    
    21   19   20 1    
    22    4   21 1    
    23    5   22 1    
    24    5   23 1    
    25    5   24 1    
    26    6   25 1    
    27    6   26 1    
    28   11   27 1    
    29   11   28 1    
    30   13   29 1    
    31   14   30 1    
    32   16   31 1    
    33   16   32 1    
    34   17   33 1    
    35   18   34 1    
    36   19   35 1    
    37   20   36 1    
@<TRIPOS>SUBSTRUCTURE
     1 NDZ         1 PERM              0 ****  ****    0 ROOT 
@<TRIPOS>NORMAL
@<TRIPOS>ALT_TYPE
MMFF94_ALT_TYPE_SET 
MMFF94 4 CR 6 CR 7 CR 11 CR 13 CR 14 CR 16 CR 17 CR 19 CR 2 CO2M 8 CO2M \
21 HC 25 HC 26 HC 27 HC 28 HC 29 HC 30 HC 31 HC 32 HC \
33 HC 35 HC 22 HNR+ 23 HNR+ 24 HNR+ 34 HOR 36 HOR 1 O2CM \
3 O2CM 9 O2CM 10 O2CM 12 OR 15 OR 18 OR 20 OR 5 NR+ \

