#	Name:			3fv2_ligand
#	Creating user name:	suminyi
#	Creation time:		Sun Sep 30 06:51:13 2018

#	Modifying user name:	suminyi
#	Modification time:	Sun Sep 30 06:51:13 2018

@<TRIPOS>MOLECULE
3fv2_ligand
   36    37     1     1     0
SMALL
MMFF94_CHARGES


@<TRIPOS>ATOM
      1 O          -3.3730   14.4470   17.2730 O.co2     1 MOL        -0.9000 
      2 C          -3.9570   15.1390   18.0930 C.2       1 MOL         0.9060 
      3 OXT        -3.4270   16.1530   18.5020 O.co2     1 MOL        -0.9000 
      4 CA         -5.4590   14.9230   18.3370 C.3       1 MOL         0.3970 
      5 N          -6.0640   13.6410   17.7530 N.4       1 MOL        -0.8530 
      6 CB         -5.7850   15.0770   19.8450 C.3       1 MOL         0.0000 
      7 CAJ        -7.2820   15.3240   20.2000 C.3       1 MOL         0.1740 
      8 CAD        -7.8330   16.6910   19.7210 C.2       1 MOL         0.9060 
      9 OAA        -9.0430   16.8620   19.7330 O.co2     1 MOL        -0.9000 
     10 OAE        -7.0370   17.5910   19.4860 O.co2     1 MOL        -0.9000 
     11 CAR        -7.4620   15.2230   21.7390 C.3       1 MOL         0.0000 
     12 OAI        -8.0370   14.1930   19.6700 O.3       1 MOL        -0.5600 
     13 CAH        -8.3880   13.2660   20.7270 C.3       1 MOL         0.2800 
     14 CAQ        -8.4970   14.1330   21.9970 C.3       1 MOL         0.2800 
     15 OAP        -9.7830   14.8020   22.1510 O.3       1 MOL        -0.5600 
     16 CAO       -10.9620   13.9940   21.9320 C.3       1 MOL         0.2800 
     17 CAF       -10.9140   13.4760   20.4910 C.3       1 MOL         0.2800 
     18 OAB       -10.8450   14.6120   19.6110 O.3       1 MOL        -0.6800 
     19 CAG        -9.6940   12.5370   20.3740 C.3       1 MOL         0.2800 
     20 OAC        -9.6140   11.9830   19.0620 O.3       1 MOL        -0.6800 
     21 H1         -5.9410   15.7530   17.8150 H         1 MOL         0.0000 
     22 H2         -7.1010   13.6140   17.9420 H         1 MOL         0.4500 
     23 H3         -5.6520   12.7550   18.1080 H         1 MOL         0.4500 
     24 H4         -6.0060   13.6060   16.7210 H         1 MOL         0.4500 
     25 H5         -5.1970   15.8890   20.2780 H         1 MOL         0.0000 
     26 H6         -5.4720   14.1610   20.3350 H         1 MOL         0.0000 
     27 H7         -7.8060   16.1640   22.1490 H         1 MOL         0.0000 
     28 H8         -6.5350   14.9720   22.2450 H         1 MOL         0.0000 
     29 H9         -7.5760   12.5450   20.8500 H         1 MOL         0.0000 
     30 H10        -8.2770   13.5640   22.9020 H         1 MOL         0.0000 
     31 H11       -11.8460   14.6130   22.0930 H         1 MOL         0.0000 
     32 H12       -10.9740   13.1440   22.6180 H         1 MOL         0.0000 
     33 H13       -11.8170   12.9040   20.2780 H         1 MOL         0.0000 
     34 H14       -10.0480   15.1650   19.8900 H         1 MOL         0.4000 
     35 H15        -9.8230   11.7170   21.0880 H         1 MOL         0.0000 
     36 H16        -9.2960   12.7160   18.4660 H         1 MOL         0.4000 
@<TRIPOS>BOND
     1    1    2 ar   
     2    2    3 ar   
     3    2    4 1    
     4    4    5 1    
     5    4    6 1    
     6    6    7 1    
     7    7    8 1    
     8    7   11 1    
     9    7   12 1    
    10    8    9 ar   
    11    8   10 ar   
    12   11   14 1    
    13   12   13 1    
    14   13   14 1    
    15   13   19 1    
    16   14   15 1    
    17   15   16 1    
    18   16   17 1    
    19   17   18 1    
    20   17   19 1    
    21   19   20 1    
    22    4   21 1    
    23    5   22 1    
    24    5   23 1    
    25    5   24 1    
    26    6   25 1    
    27    6   26 1    
    28   11   27 1    
    29   11   28 1    
    30   13   29 1    
    31   14   30 1    
    32   16   31 1    
    33   16   32 1    
    34   17   33 1    
    35   18   34 1    
    36   19   35 1    
    37   20   36 1    
@<TRIPOS>SUBSTRUCTURE
     1 MOL         1 PERM              0 ****  ****    0 ROOT 
@<TRIPOS>NORMAL
@<TRIPOS>ALT_TYPE
MMFF94_ALT_TYPE_SET 
MMFF94 4 CR 6 CR 7 CR 11 CR 13 CR 14 CR 16 CR 17 CR 19 CR 2 CO2M 8 CO2M \
21 HC 25 HC 26 HC 27 HC 28 HC 29 HC 30 HC 31 HC 32 HC \
33 HC 35 HC 22 HNR+ 23 HNR+ 24 HNR+ 34 HOR 36 HOR 1 O2CM \
3 O2CM 9 O2CM 10 O2CM 12 OR 15 OR 18 OR 20 OR 5 NR+ \

