#	Name:			2qe4_ligand
#	Creating user name:	suminyi
#	Creation time:		Sun Sep 30 06:51:14 2018

#	Modifying user name:	suminyi
#	Modification time:	Sun Sep 30 06:51:14 2018

@<TRIPOS>MOLECULE
2qe4_ligand
   46    49     1     1     0
SMALL
MMFF94_CHARGES


@<TRIPOS>ATOM
      1 C1         -6.6520    8.3500   26.6550 C.ar      1 MOL         0.0825 
      2 C2         -5.8160    8.2670   25.5470 C.ar      1 MOL        -0.1500 
      3 C3         -5.8960    7.1580   24.6900 C.ar      1 MOL        -0.1435 
      4 C4         -6.7960    6.1190   24.9680 C.ar      1 MOL         0.0825 
      5 O5         -6.9030    5.0190   24.1160 O.3       1 MOL        -0.3625 
      6 C6         -8.1360    4.2460   24.1660 C.3       1 MOL         0.4235 
      7 C8         -8.3420    3.8250   25.6360 C.3       1 MOL         0.0000 
      8 C10        -7.1830    2.9590   26.1920 C.3       1 MOL         0.0000 
      9 C11        -6.9460    3.4430   27.6300 C.3       1 MOL         0.0000 
     10 C12        -8.0710    4.4370   27.9230 C.3       1 MOL         0.0000 
     11 C13        -8.4770    5.0350   26.5620 C.3       1 MOL         0.1435 
     12 C15        -7.5870    6.1900   26.1250 C.ar      1 MOL        -0.1435 
     13 C16        -7.5470    7.3290   26.9230 C.ar      1 MOL        -0.1500 
     14 C17        -8.1860    3.0120   23.2650 C.ar      1 MOL        -0.1435 
     15 C18        -7.1150    2.5630   22.4830 C.ar      1 MOL        -0.1500 
     16 C19        -7.2130    1.3420   21.7990 C.ar      1 MOL        -0.1500 
     17 C20        -8.3580    0.5530   21.9260 C.ar      1 MOL         0.0825 
     18 O21        -8.4440   -0.6890   21.3710 O.3       1 MOL        -0.5325 
     19 C22        -9.4300    1.0230   22.6680 C.ar      1 MOL        -0.1500 
     20 C23        -9.3580    2.2510   23.3060 C.ar      1 MOL        -0.1500 
     21 C24        -4.9170    7.0470   23.5400 C.3       1 MOL         0.4235 
     22 O25        -5.5730    6.8690   22.2570 O.3       1 MOL        -0.5600 
     23 C26        -6.3200    8.0050   21.7640 C.3       1 MOL         0.2800 
     24 O27        -6.5870    9.3720   27.5460 O.3       1 MOL        -0.5325 
     25 H1         -5.0950    9.0610   25.3680 H         1 MOL         0.1500 
     26 H2         -8.9400    4.9230   23.8710 H         1 MOL         0.0000 
     27 H3         -9.2710    3.2700   25.7430 H         1 MOL         0.0000 
     28 H4         -6.2660    3.0820   25.6120 H         1 MOL         0.0000 
     29 H5         -7.4440    1.9000   26.1680 H         1 MOL         0.0000 
     30 H6         -5.9750    3.9390   27.6950 H         1 MOL         0.0000 
     31 H7         -6.9780    2.6190   28.3440 H         1 MOL         0.0000 
     32 H8         -7.7770    5.1870   28.6580 H         1 MOL         0.0000 
     33 H9         -8.9090    3.8660   28.3270 H         1 MOL         0.0000 
     34 H10        -9.5130    5.3830   26.5930 H         1 MOL         0.0000 
     35 H11        -8.1950    7.4220   27.7910 H         1 MOL         0.1500 
     36 H12        -6.2010    3.1520   22.4270 H         1 MOL         0.1500 
     37 H13        -6.3820    0.9770   21.2060 H         1 MOL         0.1500 
     38 H14        -9.1650   -1.2010   21.8970 H         1 MOL         0.4500 
     39 H15       -10.3220    0.4170   22.7880 H         1 MOL         0.1500 
     40 H16       -10.2120    2.5830   23.8910 H         1 MOL         0.1500 
     41 H17        -4.2740    6.1820   23.7080 H         1 MOL         0.0000 
     42 H18        -4.2940    7.9400   23.5100 H         1 MOL         0.0000 
     43 H19        -6.8280    7.7180   20.8390 H         1 MOL         0.0000 
     44 H20        -5.6340    8.8300   21.5580 H         1 MOL         0.0000 
     45 H21        -7.0630    8.3100   22.5040 H         1 MOL         0.0000 
     46 H22        -6.1000   10.1840   27.2300 H         1 MOL         0.4500 
@<TRIPOS>BOND
     1    1    2 ar   
     2    1   13 ar   
     3    1   24 1    
     4    2    3 ar   
     5    3    4 ar   
     6    3   21 1    
     7    4    5 1    
     8    4   12 ar   
     9    5    6 1    
    10    6    7 1    
    11    6   14 1    
    12    7    8 1    
    13    7   11 1    
    14    8    9 1    
    15    9   10 1    
    16   10   11 1    
    17   11   12 1    
    18   12   13 ar   
    19   14   15 ar   
    20   14   20 ar   
    21   15   16 ar   
    22   16   17 ar   
    23   17   18 1    
    24   17   19 ar   
    25   19   20 ar   
    26   21   22 1    
    27   22   23 1    
    28    2   25 1    
    29    6   26 1    
    30    7   27 1    
    31    8   28 1    
    32    8   29 1    
    33    9   30 1    
    34    9   31 1    
    35   10   32 1    
    36   10   33 1    
    37   11   34 1    
    38   13   35 1    
    39   15   36 1    
    40   16   37 1    
    41   18   38 1    
    42   19   39 1    
    43   20   40 1    
    44   21   41 1    
    45   21   42 1    
    46   23   43 1    
    47   23   44 1    
    48   23   45 1    
    49   24   46 1    
@<TRIPOS>SUBSTRUCTURE
     1 MOL         1 PERM              0 ****  ****    0 ROOT 
@<TRIPOS>NORMAL
@<TRIPOS>ALT_TYPE
MMFF94_ALT_TYPE_SET 
MMFF94 6 CR 7 CR 8 CR 9 CR 10 CR 11 CR 21 CR 23 CR 1 CB 2 CB 3 CB 4 CB \
12 CB 13 CB 14 CB 15 CB 16 CB 17 CB 19 CB 20 CB 25 HC \
26 HC 27 HC 28 HC 29 HC 30 HC 31 HC 32 HC 33 HC 34 HC \
35 HC 36 HC 37 HC 39 HC 40 HC 41 HC 42 HC 43 HC 44 HC \
45 HC 38 HOCC 46 HOCC 5 OC=C 18 OC=C 24 OC=C 22 OR 
