#	Name:			3g2z_ligand
#	Creating user name:	suminyi
#	Creation time:		Sun Sep 30 06:51:02 2018

#	Modifying user name:	suminyi
#	Modification time:	Sun Sep 30 06:51:02 2018

@<TRIPOS>MOLECULE
3g2z_ligand
   22    23     1     1     0
SMALL
MMFF94_CHARGES


@<TRIPOS>ATOM
      1 O13        -6.0990   51.6580    8.6970 O.2       1 MOL        -0.5700 
      2 C11        -6.3790   51.9070    9.8480 C.2       1 MOL         0.4946 
      3 C12        -5.3170   52.3180   10.7730 C.2       1 MOL        -0.1356 
      4 C7         -5.5620   52.6810   12.0420 C.2       1 MOL        -0.0382 
      5 C8         -6.9550   52.6860   12.6290 C.3       1 MOL         0.1382 
      6 C9         -8.0480   52.7630   11.5430 C.3       1 MOL         0.0000 
      7 C10        -7.7680   51.7360   10.4240 C.3       1 MOL         0.0610 
      8 N6         -4.5460   52.9450   12.8970 N.pl3     1 MOL        -0.5840 
      9 C5         -3.2300   53.1210   12.6480 C.2       1 MOL         0.2705 
     10 N4         -2.7830   53.8150   11.5870 N.pl3     1 MOL         0.2996 
     11 N3         -1.4330   53.8150   11.6010 N.2       1 MOL        -0.4180 
     12 N2         -1.1170   53.2060   12.7280 N.2       1 MOL         0.0000 
     13 N1         -2.2280   52.7720   13.4210 N.2       1 MOL        -0.3381 
     14 H1         -4.3240   52.2620   10.3470 H         1 MOL         0.1500 
     15 H2         -7.0760   53.5230   13.3210 H         1 MOL         0.0000 
     16 H3         -7.0850   51.7700   13.2050 H         1 MOL         0.0000 
     17 H4         -8.0690   53.7700   11.1170 H         1 MOL         0.0000 
     18 H5         -9.0270   52.5720   11.9890 H         1 MOL         0.0000 
     19 H6         -7.8480   50.7240   10.8290 H         1 MOL         0.0000 
     20 H7         -8.5040   51.8370    9.6230 H         1 MOL         0.0000 
     21 H8         -4.7550   52.7070   13.8570 H         1 MOL         0.4000 
     22 H9         -3.3400   54.2570   10.8620 H         1 MOL         0.2700 
@<TRIPOS>BOND
     1    1    2 2    
     2    2    3 1    
     3    2    7 1    
     4    3    4 2    
     5    4    5 1    
     6    4    8 1    
     7    5    6 1    
     8    6    7 1    
     9    8    9 1    
    10    9   10 1    
    11    9   13 2    
    12   10   11 1    
    13   11   12 2    
    14   12   13 1    
    15    3   14 1    
    16    5   15 1    
    17    5   16 1    
    18    6   17 1    
    19    6   18 1    
    20    7   19 1    
    21    7   20 1    
    22    8   21 1    
    23   10   22 1    
@<TRIPOS>SUBSTRUCTURE
     1 MOL         1 PERM              0 ****  ****    0 ROOT 
@<TRIPOS>NORMAL
@<TRIPOS>ALT_TYPE
MMFF94_ALT_TYPE_SET 
MMFF94 5 CR 6 CR 7 CR 9 C5A 2 C=OR 3 C=C 4 C=C 14 HC 15 HC 16 HC 17 HC \
18 HC 19 HC 20 HC 22 HPYL 21 HNCC 1 O=CR 10 NPYL 11 N5A \
12 N5B 13 N5B 8 NC=N 
