#	Name:			3g2z_ligand
#	Creating user name:	suminyi
#	Creation time:		Sun Sep 30 06:49:02 2018

#	Modifying user name:	suminyi
#	Modification time:	Sun Sep 30 06:49:02 2018

@<TRIPOS>MOLECULE
3g2z_ligand
   22    23     1     1     0
SMALL
MMFF94_CHARGES


@<TRIPOS>ATOM
      1 O13        -6.2580   51.5760    8.7620 O.2       1 GZ2        -0.5700 
      2 C11        -6.4170   51.8200    9.9490 C.2       1 GZ2         0.4946 
      3 C12        -5.2890   52.3690   10.7330 C.2       1 GZ2        -0.1356 
      4 C7         -5.4420   52.7010   12.0280 C.2       1 GZ2        -0.0382 
      5 C8         -6.7740   52.5630   12.7320 C.3       1 GZ2         0.1382 
      6 C9         -7.9760   52.4870   11.7940 C.3       1 GZ2         0.0000 
      7 C10        -7.7570   51.5620   10.6070 C.3       1 GZ2         0.0610 
      8 N6         -4.4610   53.1560   12.8200 N.pl3     1 GZ2        -0.5840 
      9 C5         -3.1360   53.2840   12.5140 C.2       1 GZ2         0.2705 
     10 N4         -2.6620   53.5610   11.2920 N.pl3     1 GZ2         0.2996 
     11 N3         -1.2670   53.5860   11.4610 N.2       1 GZ2        -0.4180 
     12 N2         -0.9850   53.3350   12.8170 N.2       1 GZ2         0.0000 
     13 N1         -2.1990   53.1450   13.4760 N.2       1 GZ2        -0.3381 
     14 H1         -4.3203   52.5065   10.2549 H         1 GZ2         0.1500 
     15 H2         -6.9066   53.4331   13.3918 H         1 GZ2         0.0000 
     16 H3         -6.7504   51.6444   13.3367 H         1 GZ2         0.0000 
     17 H4         -8.1868   53.4977   11.4144 H         1 GZ2         0.0000 
     18 H5         -8.8420   52.1220   12.3656 H         1 GZ2         0.0000 
     19 H6         -7.7908   50.5189   10.9545 H         1 GZ2         0.0000 
     20 H7         -8.5564   51.7292    9.8701 H         1 GZ2         0.0000 
     21 H8         -4.7386   53.4424   13.7697 H         1 GZ2         0.4000 
     22 H9         -3.1975   53.7194   10.4265 H         1 GZ2         0.2700 
@<TRIPOS>BOND
     1    1    2 2    
     2    2    3 1    
     3    2    7 1    
     4    3    4 2    
     5    4    5 1    
     6    4    8 1    
     7    5    6 1    
     8    6    7 1    
     9    8    9 1    
    10    9   10 1    
    11    9   13 2    
    12   10   11 1    
    13   11   12 2    
    14   12   13 1    
    15    3   14 1    
    16    5   15 1    
    17    5   16 1    
    18    6   17 1    
    19    6   18 1    
    20    7   19 1    
    21    7   20 1    
    22    8   21 1    
    23   10   22 1    
@<TRIPOS>SUBSTRUCTURE
     1 GZ2         1 PERM              0 ****  ****    0 ROOT 
@<TRIPOS>NORMAL
@<TRIPOS>ALT_TYPE
MMFF94_ALT_TYPE_SET 
MMFF94 5 CR 6 CR 7 CR 9 C5A 2 C=OR 3 C=C 4 C=C 14 HC 15 HC 16 HC 17 HC \
18 HC 19 HC 20 HC 22 HPYL 21 HNCC 1 O=CR 10 NPYL 11 N5A \
12 N5B 13 N5B 8 NC=N 
