#	Name:			2yki_ligand
#	Creating user name:	suminyi
#	Creation time:		Sun Sep 30 06:51:12 2018

#	Modifying user name:	suminyi
#	Modification time:	Sun Sep 30 06:51:12 2018

@<TRIPOS>MOLECULE
2yki_ligand
   52    58     1     1     0
SMALL
MMFF94_CHARGES


@<TRIPOS>ATOM
      1 C1         13.1980   14.4100   26.4250 C.ar      1 MOL         0.1600 
      2 N1         13.0190   14.7510   27.7280 N.ar      1 MOL        -0.6200 
      3 C2         11.7470   14.8100   28.1930 C.ar      1 MOL         0.1600 
      4 N2          9.3780   14.5740   27.5600 N.pl3     1 MOL         0.0332 
      5 C3         12.1530   14.0930   25.5500 C.ar      1 MOL        -0.1500 
      6 N3          9.7140   13.9100   25.4270 N.2       1 MOL        -0.5653 
      7 C4          8.7910   14.1580   26.3860 C.2       1 MOL         0.1335 
      8 N4          3.5420   11.8070   24.6320 N.am      1 MOL        -0.7301 
      9 C5         10.8680   14.1510   26.0550 C.ar      1 MOL         0.2272 
     10 N5         -1.1780   10.7790   26.2410 N.ar      1 MOL        -0.5670 
     11 C6         10.6870   14.5270   27.3400 C.ar      1 MOL        -0.1516 
     12 N6         -2.3160   11.5930   24.2480 N.pl3     1 MOL         0.0332 
     13 C7          7.3740   14.2010   26.1000 C.ar      1 MOL         0.0530 
     14 C8          4.5880   14.5220   25.6630 C.ar      1 MOL        -0.1500 
     15 C9          5.2560   15.3500   26.5530 C.ar      1 MOL        -0.1500 
     16 C10         6.6170   15.1650   26.7910 C.ar      1 MOL        -0.1500 
     17 C11         2.3900   11.6950   23.9460 C.2       1 MOL         0.5438 
     18 C12         1.1640   11.2890   24.7200 C.ar      1 MOL         0.0862 
     19 O13         2.3710   11.9680   22.7620 O.2       1 MOL        -0.5700 
     20 C14         1.2250   10.7180   25.9990 C.ar      1 MOL        -0.1500 
     21 C15         0.0490   10.4670   26.7060 C.ar      1 MOL         0.1600 
     22 C16         4.7130   12.4960   24.0880 C.3       1 MOL         0.5871 
     23 C17         5.3050   13.5210   25.0240 C.ar      1 MOL        -0.1435 
     24 C18         6.6850   13.3590   25.1920 C.ar      1 MOL         0.0000 
     25 C19         5.9050   11.6060   23.8460 C.ar      1 MOL        -0.1435 
     26 C20         7.0630   12.1190   24.4310 C.ar      1 MOL         0.0000 
     27 C21         8.2640   11.3950   24.3190 C.ar      1 MOL        -0.1500 
     28 C22         8.2630   10.1740   23.6460 C.ar      1 MOL        -0.1500 
     29 C23         7.0850    9.6690   23.0970 C.ar      1 MOL        -0.1500 
     30 C24         5.8990   10.3890   23.1760 C.ar      1 MOL        -0.1500 
     31 C25        -0.1250   11.4960   24.2190 C.ar      1 MOL         0.0000 
     32 C26        -1.2430   11.2410   24.9750 C.ar      1 MOL         0.1054 
     33 C27        -1.9130   12.0650   23.0080 C.2       1 MOL        -0.3016 
     34 C28        -0.5380   12.0420   22.9670 C.2       1 MOL        -0.1500 
     35 H1         14.2320   14.3820   26.0880 H         1 MOL         0.1500 
     36 H2         11.6040   15.1030   29.2310 H         1 MOL         0.1500 
     37 H3          8.9120   14.7980   28.4320 H         1 MOL         0.2700 
     38 H4         12.3260   13.8260   24.5150 H         1 MOL         0.1500 
     39 H5          3.5330   11.6170   25.6150 H         1 MOL         0.3700 
     40 H6         -3.2940   11.5490   24.5520 H         1 MOL         0.2700 
     41 H7          3.5220   14.6370   25.4830 H         1 MOL         0.1500 
     42 H8          4.7180   16.1440   27.0650 H         1 MOL         0.1500 
     43 H9          7.1000   15.8280   27.5020 H         1 MOL         0.1500 
     44 H10         2.1750   10.4540   26.4540 H         1 MOL         0.1500 
     45 H11         0.0770   10.0340   27.7040 H         1 MOL         0.1500 
     46 H12         4.4410   13.0080   23.1760 H         1 MOL         0.0000 
     47 H13         9.1860   11.7100   24.7840 H         1 MOL         0.1500 
     48 H14         9.1790    9.5910   23.5870 H         1 MOL         0.1500 
     49 H15         7.0830    8.6910   22.6380 H         1 MOL         0.1500 
     50 H16         4.9770    9.9910   22.7590 H         1 MOL         0.1500 
     51 H17        -2.6510   12.3730   22.2720 H         1 MOL         0.1500 
     52 H18         0.0750   12.3610   22.1310 H         1 MOL         0.1500 
@<TRIPOS>BOND
     1    1    2 ar   
     2    5    1 ar   
     3    3    2 ar   
     4   11    3 ar   
     5    7    4 1    
     6    4   11 1    
     7    9    5 ar   
     8    7    6 2    
     9    6    9 1    
    10   13    7 1    
    11    8   17 am   
    12   22    8 1    
    13    9   11 ar   
    14   21   10 ar   
    15   10   32 ar   
    16   32   12 1    
    17   12   33 1    
    18   16   13 ar   
    19   13   24 ar   
    20   14   15 ar   
    21   23   14 ar   
    22   15   16 ar   
    23   17   18 1    
    24   17   19 2    
    25   18   20 ar   
    26   18   31 ar   
    27   20   21 ar   
    28   22   23 1    
    29   22   25 1    
    30   23   24 ar   
    31   24   26 1    
    32   25   26 ar   
    33   25   30 ar   
    34   26   27 ar   
    35   27   28 ar   
    36   28   29 ar   
    37   29   30 ar   
    38   31   32 ar   
    39   31   34 1    
    40   33   34 2    
    41    1   35 1    
    42    3   36 1    
    43    4   37 1    
    44    5   38 1    
    45    8   39 1    
    46   12   40 1    
    47   14   41 1    
    48   15   42 1    
    49   16   43 1    
    50   20   44 1    
    51   21   45 1    
    52   22   46 1    
    53   27   47 1    
    54   28   48 1    
    55   29   49 1    
    56   30   50 1    
    57   33   51 1    
    58   34   52 1    
@<TRIPOS>SUBSTRUCTURE
     1 MOL         1 PERM              0 ****  ****    0 ROOT 
@<TRIPOS>NORMAL
@<TRIPOS>ALT_TYPE
MMFF94_ALT_TYPE_SET 
MMFF94 22 CR 7 C5A 33 C5A 11 C5A 32 C5A 34 C5B 9 C5B 31 C5B 1 CB 3 CB \
5 CB 13 CB 14 CB 15 CB 16 CB 18 CB 20 CB 21 CB 23 CB 24 CB \
25 CB 26 CB 27 CB 28 CB 29 CB 30 CB 17 C=ON 35 HC 36 HC \
38 HC 41 HC 42 HC 43 HC 44 HC 45 HC 46 HC 47 HC 48 HC \
49 HC 50 HC 51 HC 52 HC 37 HPYL 40 HPYL 39 HNCO 19 O=CN \
2 NPYD 10 NPYD 4 NPYL 12 NPYL 6 N5B 8 NC=O 
