#	Name:			3utu_ligand
#	Creating user name:	suminyi
#	Creation time:		Sun Sep 30 06:51:12 2018

#	Modifying user name:	suminyi
#	Modification time:	Sun Sep 30 06:51:12 2018

@<TRIPOS>MOLECULE
3utu_ligand
   82    85     1     1     0
SMALL
MMFF94_CHARGES


@<TRIPOS>ATOM
      1 S8         18.1000  -16.2860   24.9310 S.o2      1 MOL         1.4470 
      2 Cl         20.8430  -11.9410   26.5080 Cl        1 MOL        -0.1770 
      3 C35        19.5320  -15.2620   24.7660 C.ar      1 MOL        -0.0090 
      4 C10        24.3510  -13.4760   24.3740 C.3       1 MOL         0.2800 
      5 O9         23.0830  -13.0680   24.9330 O.3       1 MOL        -0.3625 
      6 C5         21.9190  -13.8160   24.8550 C.ar      1 MOL         0.0825 
      7 O1         18.3520  -17.7060   24.7290 O.2       1 MOL        -0.6500 
      8 O10        17.1360  -15.6670   25.8200 O.2       1 MOL        -0.6500 
      9 C7         20.6710  -15.7660   24.1420 C.ar      1 MOL        -0.1500 
     10 C3         19.5870  -14.0540   25.4570 C.ar      1 MOL        -0.1500 
     11 C6         21.8560  -15.0310   24.1650 C.ar      1 MOL        -0.1500 
     12 C4         20.7810  -13.3490   25.5150 C.ar      1 MOL         0.1770 
     13 C13        17.5550  -13.8980   22.3230 C.2       1 MOL         0.5690 
     14 N11        16.9990  -15.9770   23.7640 N.am      1 MOL        -0.9137 
     15 O14        16.7090  -13.1500   22.7810 O.2       1 MOL        -0.5700 
     16 C15        14.7940  -19.2520   21.9830 C.3       1 MOL         0.4436 
     17 C31        14.3480  -19.5000   23.4170 C.ar      1 MOL        -0.1435 
     18 C32        13.0290  -19.8580   23.6870 C.ar      1 MOL        -0.1500 
     19 C33        12.6400  -20.1280   24.9960 C.ar      1 MOL        -0.1500 
     20 C44        13.5470  -20.0580   26.0480 C.ar      1 MOL         0.0730 
     21 C8         14.8580  -19.6550   25.7870 C.ar      1 MOL        -0.1500 
     22 C9         15.2530  -19.3800   24.4750 C.ar      1 MOL        -0.1500 
     23 C40        13.0990  -20.3940   27.3800 C.1       1 MOL         0.4841 
     24 N63        12.7210  -20.6560   28.4300 N.1       1 MOL        -0.5571 
     25 C45        17.4170  -15.4280   22.4450 C.3       1 MOL         0.4167 
     26 C12        16.3480  -15.8440   21.4160 C.3       1 MOL         0.0610 
     27 C46        16.2450  -17.3340   21.3560 C.2       1 MOL         0.5690 
     28 O22        17.1720  -18.0310   20.9930 O.2       1 MOL        -0.5700 
     29 N14        15.0630  -17.8340   21.7460 N.am      1 MOL        -0.7301 
     30 N15        18.5540  -13.3880   21.5510 N.am      1 MOL        -0.6602 
     31 C16        18.3960  -12.1060   20.8250 C.3       1 MOL         0.3611 
     32 C17        17.1360  -12.0940   19.9590 C.2       1 MOL         0.5690 
     33 O18        17.0110  -12.8180   18.9880 O.2       1 MOL        -0.5700 
     34 C34        19.6490  -11.9460   19.9330 C.3       1 MOL         0.0000 
     35 C1         20.5990  -13.0740   20.3450 C.3       1 MOL         0.0000 
     36 C2         19.7210  -14.1130   21.0470 C.3       1 MOL         0.3001 
     37 N19        16.1600  -11.2380   20.2940 N.am      1 MOL        -0.7301 
     38 C20        14.7950  -11.3510   19.7680 C.3       1 MOL         0.4436 
     39 C21        13.7820  -11.2100   20.8740 C.ar      1 MOL        -0.1435 
     40 C26        13.3980   -9.9550   21.3400 C.ar      1 MOL        -0.1500 
     41 C25        12.4520   -9.8500   22.3570 C.ar      1 MOL        -0.1500 
     42 C24        11.8780  -11.0010   22.9150 C.ar      1 MOL        -0.0220 
     43 C27        10.8860  -10.9020   24.0070 C.cat     1 MOL         0.7308 
     44 N29        10.6160   -9.6970   24.6100 N.pl3     1 MOL        -1.1924 
     45 N28        10.3930  -12.0110   24.6490 N.pl3     1 MOL        -1.1924 
     46 C23        12.2690  -12.2540   22.4280 C.ar      1 MOL        -0.1500 
     47 C22        13.2210  -12.3540   21.4250 C.ar      1 MOL        -0.1500 
     48 H1         25.0900  -12.6980   24.5750 H         1 MOL         0.0000 
     49 H2         24.2500  -13.5960   23.2940 H         1 MOL         0.0000 
     50 H3         24.6720  -14.4140   24.8370 H         1 MOL         0.0000 
     51 H4         20.6440  -16.7460   23.6570 H         1 MOL         0.1500 
     52 H5         18.7250  -13.6920   26.0170 H         1 MOL         0.1500 
     53 H6         22.7360  -15.4440   23.6850 H         1 MOL         0.1500 
     54 H7         16.3360  -15.3990   24.2910 H         1 MOL         0.4200 
     55 H8         14.0220  -19.5760   21.2780 H         1 MOL         0.0000 
     56 H9         15.6950  -19.8400   21.7780 H         1 MOL         0.0000 
     57 H10        12.2950  -19.9130   22.8800 H         1 MOL         0.1500 
     58 H11        11.6140  -20.3770   25.2060 H         1 MOL         0.1500 
     59 H12        15.5760  -19.5490   26.5990 H         1 MOL         0.1500 
     60 H13        16.2780  -19.0720   24.2680 H         1 MOL         0.1500 
     61 H14        18.3600  -15.8940   22.1540 H         1 MOL         0.0000 
     62 H15        16.6100  -15.4840   20.4210 H         1 MOL         0.0000 
     63 H16        15.3830  -15.4030   21.6770 H         1 MOL         0.0000 
     64 H17        14.3190  -17.1750   21.9120 H         1 MOL         0.3700 
     65 H18        18.3280  -11.2840   21.5460 H         1 MOL         0.0000 
     66 H19        20.1090  -10.9640   20.0490 H         1 MOL         0.0000 
     67 H20        19.3990  -12.0680   18.8770 H         1 MOL         0.0000 
     68 H21        21.3490  -12.6940   21.0420 H         1 MOL         0.0000 
     69 H22        21.0950  -13.5040   19.4740 H         1 MOL         0.0000 
     70 H23        19.3920  -14.8720   20.3330 H         1 MOL         0.0000 
     71 H24        20.2740  -14.5860   21.8590 H         1 MOL         0.0000 
     72 H25        16.3030  -10.6690   21.1180 H         1 MOL         0.3700 
     73 H26        14.6590  -12.3270   19.2890 H         1 MOL         0.0000 
     74 H27        14.6190  -10.5930   19.0100 H         1 MOL         0.0000 
     75 H28        13.8350   -9.0580   20.9070 H         1 MOL         0.1500 
     76 H29        12.1620   -8.8600   22.6990 H         1 MOL         0.1500 
     77 H30         9.7400   -9.6960   25.1470 H         1 MOL         0.6690 
     78 H31        11.4050   -9.3550   25.1340 H         1 MOL         0.6690 
     79 H32        10.4960  -12.9050   24.1680 H         1 MOL         0.6690 
     80 H33         9.4780  -11.8970   25.0900 H         1 MOL         0.6690 
     81 H34        11.8550  -13.1820   22.8140 H         1 MOL         0.1500 
     82 H35        13.5150  -13.3430   21.0750 H         1 MOL         0.1500 
@<TRIPOS>BOND
     1    1    3 1    
     2    1    7 2    
     3    1    8 2    
     4   14    1 am   
     5   12    2 1    
     6    3    9 ar   
     7    3   10 ar   
     8    5    4 1    
     9    6    5 1    
    10   11    6 ar   
    11   12    6 ar   
    12    9   11 ar   
    13   10   12 ar   
    14   13   15 2    
    15   25   13 1    
    16   13   30 am   
    17   25   14 1    
    18   16   17 1    
    19   29   16 1    
    20   17   18 ar   
    21   17   22 ar   
    22   18   19 ar   
    23   19   20 ar   
    24   21   20 ar   
    25   20   23 1    
    26   22   21 ar   
    27   23   24 3    
    28   26   25 1    
    29   27   26 1    
    30   27   28 2    
    31   27   29 am   
    32   30   31 1    
    33   30   36 1    
    34   31   32 1    
    35   31   34 1    
    36   32   33 2    
    37   32   37 am   
    38   34   35 1    
    39   35   36 1    
    40   37   38 1    
    41   38   39 1    
    42   39   40 ar   
    43   39   47 ar   
    44   40   41 ar   
    45   41   42 ar   
    46   42   43 1    
    47   42   46 ar   
    48   43   44 ar   
    49   43   45 ar   
    50   46   47 ar   
    51    4   48 1    
    52    4   49 1    
    53    4   50 1    
    54    9   51 1    
    55   10   52 1    
    56   11   53 1    
    57   14   54 1    
    58   16   55 1    
    59   16   56 1    
    60   18   57 1    
    61   19   58 1    
    62   21   59 1    
    63   22   60 1    
    64   25   61 1    
    65   26   62 1    
    66   26   63 1    
    67   29   64 1    
    68   31   65 1    
    69   34   66 1    
    70   34   67 1    
    71   35   68 1    
    72   35   69 1    
    73   36   70 1    
    74   36   71 1    
    75   37   72 1    
    76   38   73 1    
    77   38   74 1    
    78   40   75 1    
    79   41   76 1    
    80   44   77 1    
    81   44   78 1    
    82   45   79 1    
    83   45   80 1    
    84   46   81 1    
    85   47   82 1    
@<TRIPOS>SUBSTRUCTURE
     1 MOL         1 PERM              0 ****  ****    0 ROOT 
@<TRIPOS>NORMAL
@<TRIPOS>ALT_TYPE
MMFF94_ALT_TYPE_SET 
MMFF94 4 CR 16 CR 25 CR 26 CR 31 CR 34 CR 35 CR 36 CR 38 CR 3 CB 6 CB \
9 CB 10 CB 11 CB 12 CB 17 CB 18 CB 19 CB 20 CB 21 CB 22 CB \
39 CB 40 CB 41 CB 42 CB 46 CB 47 CB 43 CNN+ 27 C=ON 13 C=ON \
32 C=ON 23 CSP 48 HC 49 HC 50 HC 51 HC 52 HC 53 HC \
55 HC 56 HC 57 HC 58 HC 59 HC 60 HC 61 HC 62 HC 63 HC \
65 HC 66 HC 67 HC 68 HC 69 HC 70 HC 71 HC 73 HC 74 HC \
75 HC 76 HC 81 HC 82 HC 64 HNCO 72 HNCO 54 HNSO 77 HN \
78 HN 79 HN 80 HN 28 O=CN 15 O=CN 33 O=CN 7 O2S 8 O2S \
5 OC=C 24 NSP 44 NCN+ 45 NCN+ 14 NSO2 29 NC=O 30 NC=O \
37 NC=O 1 SO2N 2 CL 
