#	Name:			4mme_ligand
#	Creating user name:	suminyi
#	Creation time:		Sun Sep 30 06:48:37 2018

#	Modifying user name:	suminyi
#	Modification time:	Sun Sep 30 06:48:37 2018

@<TRIPOS>MOLECULE
4mme_ligand
   34    37     1     1     0
SMALL
MMFF94_CHARGES


@<TRIPOS>ATOM
      1 CL        100.3790   19.6420   30.8160 Cl        1 UNNAMED    -0.1770 
      2 C13       101.2710   20.4260   32.1850 C.ar      1 UNNAMED     0.1770 
      3 C12       100.8190   20.3510   33.5130 C.ar      1 UNNAMED    -0.1500 
      4 C11       101.5270   20.9880   34.5560 C.ar      1 UNNAMED    -0.1500 
      5 C14       102.4030   21.1290   31.8960 C.ar      1 UNNAMED    -0.1500 
      6 C15       103.1010   21.7590   32.9330 C.ar      1 UNNAMED    -0.1500 
      7 C10       102.6950   21.6830   34.2580 C.ar      1 UNNAMED    -0.1435 
      8 C         103.5100   22.4590   35.2620 C.3       1 UNNAMED     1.0565 
      9 O         104.5730   23.1170   34.5470 O.3       1 UNNAMED    -0.6800 
     10 C5        102.6350   23.4890   35.9670 C.ar      1 UNNAMED    -0.1435 
     11 C6        101.7450   24.4010   35.4000 C.ar      1 UNNAMED    -0.1500 
     12 C7        101.0290   25.3160   36.1990 C.ar      1 UNNAMED    -0.1500 
     13 C8        101.2090   25.3220   37.5830 C.ar      1 UNNAMED    -0.1500 
     14 C9        102.1230   24.4150   38.1840 C.ar      1 UNNAMED    -0.1500 
     15 C4        102.8010   23.5260   37.3550 C.ar      1 UNNAMED    -0.0220 
     16 C1        103.8000   22.4380   37.5390 C.2       1 UNNAMED     0.7308 
     17 N         104.1540   21.8270   36.4340 N.2       1 UNNAMED    -0.8334 
     18 C3        105.1350   20.7930   36.4880 C.3       1 UNNAMED     0.4895 
     19 C2        105.3030   20.7650   38.0340 C.3       1 UNNAMED     0.4895 
     20 N1        104.4690   21.8590   38.5790 N.pl3     1 UNNAMED    -0.7939 
     21 H1         99.9153   19.7971   33.7401 H         1 UNNAMED     0.1500 
     22 H2        101.1648   20.9361   35.5764 H         1 UNNAMED     0.1500 
     23 H3        102.7585   21.1993   30.8744 H         1 UNNAMED     0.1500 
     24 H4        103.9920   22.3275   32.6921 H         1 UNNAMED     0.1500 
     25 H5        104.9793   23.7643   35.1112 H         1 UNNAMED     0.4000 
     26 H6        101.6011   24.4065   34.3256 H         1 UNNAMED     0.1500 
     27 H7        100.3393   26.0142   35.7387 H         1 UNNAMED     0.1500 
     28 H8        100.6518   26.0183   38.1992 H         1 UNNAMED     0.1500 
     29 H9        102.2872   24.4155   39.2555 H         1 UNNAMED     0.1500 
     30 H10       106.0650   21.0688   35.9694 H         1 UNNAMED     0.0000 
     31 H11       104.7617   19.8385   36.0887 H         1 UNNAMED     0.0000 
     32 H12       106.3578   20.9243   38.3025 H         1 UNNAMED     0.0000 
     33 H13       104.9651   19.7974   38.4334 H         1 UNNAMED     0.0000 
     34 H14       104.4044   22.1353   39.5692 H         1 UNNAMED     0.4500 
@<TRIPOS>BOND
     1    1    2 1    
     2    2    3 ar   
     3    2    5 ar   
     4    3    4 ar   
     5    4    7 ar   
     6    5    6 ar   
     7    6    7 ar   
     8    7    8 1    
     9    8    9 1    
    10    8   10 1    
    11    8   17 1    
    12   10   11 ar   
    13   10   15 ar   
    14   11   12 ar   
    15   12   13 ar   
    16   13   14 ar   
    17   14   15 ar   
    18   15   16 1    
    19   16   17 2    
    20   16   20 1    
    21   17   18 1    
    22   18   19 1    
    23   19   20 1    
    24    3   21 1    
    25    4   22 1    
    26    5   23 1    
    27    6   24 1    
    28    9   25 1    
    29   11   26 1    
    30   12   27 1    
    31   13   28 1    
    32   14   29 1    
    33   18   30 1    
    34   18   31 1    
    35   19   32 1    
    36   19   33 1    
    37   20   34 1    
@<TRIPOS>SUBSTRUCTURE
     1 UNNAMED     1 PERM              0 ****  ****    0 ROOT 
@<TRIPOS>NORMAL
@<TRIPOS>ALT_TYPE
MMFF94_ALT_TYPE_SET 
MMFF94 8 CR 18 CR 19 CR 2 CB 3 CB 4 CB 5 CB 6 CB 7 CB 10 CB 11 CB 12 CB \
13 CB 14 CB 15 CB 16 CNN+ 21 HC 22 HC 23 HC 24 HC 26 HC \
27 HC 28 HC 29 HC 30 HC 31 HC 32 HC 33 HC 34 HNN+ 25 HOR \
9 OR 17 NCN+ 20 NCN+ 1 CL 
