#	Name:			4mme_ligand
#	Creating user name:	suminyi
#	Creation time:		Sun Sep 30 06:51:10 2018

#	Modifying user name:	suminyi
#	Modification time:	Sun Sep 30 06:51:10 2018

@<TRIPOS>MOLECULE
4mme_ligand
   34    37     1     1     0
SMALL
MMFF94_CHARGES


@<TRIPOS>ATOM
      1 Cl         99.9540   19.8260   31.3640 Cl        1 MOL        -0.1770 
      2 C13       101.0250   20.4650   32.5530 C.ar      1 MOL         0.1770 
      3 C12       100.6440   20.5010   33.8910 C.ar      1 MOL        -0.1500 
      4 C11       101.4530   21.1510   34.8240 C.ar      1 MOL        -0.1500 
      5 C14       102.2460   20.9970   32.1560 C.ar      1 MOL        -0.1500 
      6 C15       103.0540   21.6370   33.0880 C.ar      1 MOL        -0.1500 
      7 C10       102.6460   21.7620   34.4210 C.ar      1 MOL        -0.1435 
      8 C         103.4370   22.6230   35.4100 C.3       1 MOL         1.0565 
      9 O         104.5490   23.2500   34.7950 O.3       1 MOL        -0.6800 
     10 C5        102.5540   23.7070   36.0540 C.ar      1 MOL        -0.1435 
     11 C6        101.7550   24.6610   35.4300 C.ar      1 MOL        -0.1500 
     12 C7        101.0930   25.6040   36.2290 C.ar      1 MOL        -0.1500 
     13 C8        101.2840   25.6210   37.6200 C.ar      1 MOL        -0.1500 
     14 C9        102.1030   24.6680   38.2390 C.ar      1 MOL        -0.1500 
     15 C4        102.6640   23.6890   37.4320 C.ar      1 MOL        -0.0220 
     16 C1        103.4780   22.5260   37.7360 C.2       1 MOL         0.7308 
     17 N         103.8450   21.8770   36.6020 N.2       1 MOL        -0.8334 
     18 C3        105.1210   21.1920   36.7840 C.3       1 MOL         0.4895 
     19 C2        105.2850   21.2380   38.3340 C.3       1 MOL         0.4895 
     20 N1        104.1890   22.0850   38.8140 N.pl3     1 MOL        -0.7939 
     21 H1         99.6960   20.0650   34.1950 H         1 MOL         0.1500 
     22 H2        101.1320   21.2230   35.8620 H         1 MOL         0.1500 
     23 H3        102.5580   20.9470   31.1170 H         1 MOL         0.1500 
     24 H4        103.9910   22.0760   32.7540 H         1 MOL         0.1500 
     25 H5        105.0340   23.8310   35.4710 H         1 MOL         0.4000 
     26 H6        101.6510   24.6630   34.3470 H         1 MOL         0.1500 
     27 H7        100.4320   26.3420   35.7710 H         1 MOL         0.1500 
     28 H8        100.7750   26.3740   38.2200 H         1 MOL         0.1500 
     29 H9        102.2600   24.6570   39.3160 H         1 MOL         0.1500 
     30 H10       105.9530   21.7150   36.3010 H         1 MOL         0.0000 
     31 H11       105.0740   20.1610   36.4220 H         1 MOL         0.0000 
     32 H12       106.2410   21.6890   38.6030 H         1 MOL         0.0000 
     33 H13       105.2050   20.2320   38.7530 H         1 MOL         0.0000 
     34 H14       104.4070   22.7750   39.5370 H         1 MOL         0.4500 
@<TRIPOS>BOND
     1    1    2 1    
     2    2    3 ar   
     3    2    5 ar   
     4    3    4 ar   
     5    4    7 ar   
     6    5    6 ar   
     7    6    7 ar   
     8    7    8 1    
     9    8    9 1    
    10    8   10 1    
    11    8   17 1    
    12   10   11 ar   
    13   10   15 ar   
    14   11   12 ar   
    15   12   13 ar   
    16   13   14 ar   
    17   14   15 ar   
    18   15   16 1    
    19   16   17 2    
    20   16   20 1    
    21   17   18 1    
    22   18   19 1    
    23   19   20 1    
    24    3   21 1    
    25    4   22 1    
    26    5   23 1    
    27    6   24 1    
    28    9   25 1    
    29   11   26 1    
    30   12   27 1    
    31   13   28 1    
    32   14   29 1    
    33   18   30 1    
    34   18   31 1    
    35   19   32 1    
    36   19   33 1    
    37   20   34 1    
@<TRIPOS>SUBSTRUCTURE
     1 MOL         1 PERM              0 ****  ****    0 ROOT 
@<TRIPOS>NORMAL
@<TRIPOS>ALT_TYPE
MMFF94_ALT_TYPE_SET 
MMFF94 8 CR 18 CR 19 CR 2 CB 3 CB 4 CB 5 CB 6 CB 7 CB 10 CB 11 CB 12 CB \
13 CB 14 CB 15 CB 16 CNN+ 21 HC 22 HC 23 HC 24 HC 26 HC \
27 HC 28 HC 29 HC 30 HC 31 HC 32 HC 33 HC 34 HNN+ 25 HOR \
9 OR 17 NCN+ 20 NCN+ 1 CL 
