#	Name:			2pog_ligand
#	Creating user name:	suminyi
#	Creation time:		Sun Sep 30 06:51:01 2018

#	Modifying user name:	suminyi
#	Modification time:	Sun Sep 30 06:51:01 2018

@<TRIPOS>MOLECULE
2pog_ligand
   39    42     1     1     0
SMALL
MMFF94_CHARGES


@<TRIPOS>ATOM
      1 C1         14.4770   51.1300   58.8070 C.ar      1 MOL        -0.1435 
      2 C2         15.8080   50.9710   58.4080 C.ar      1 MOL         0.0825 
      3 O3         16.8140   51.5430   59.1210 O.3       1 MOL        -0.5325 
      4 C4         16.1190   50.2130   57.2850 C.ar      1 MOL        -0.1500 
      5 C5         15.1030   49.6160   56.5400 C.ar      1 MOL        -0.1500 
      6 C6         13.7750   49.7670   56.9340 C.ar      1 MOL        -0.1500 
      7 C7         13.4660   50.5200   58.0640 C.ar      1 MOL         0.0825 
      8 O8         12.1530   50.6700   58.4460 O.3       1 MOL        -0.3625 
      9 C9         11.7470   51.9360   59.0270 C.3       1 MOL         0.4235 
     10 C11        12.6280   52.2600   60.2640 C.3       1 MOL         0.0000 
     11 C13        14.1270   51.8770   60.0890 C.3       1 MOL         0.1435 
     12 C15        14.4690   51.0110   61.3180 C.3       1 MOL         0.0000 
     13 C16        13.4620   51.4360   62.3870 C.3       1 MOL         0.0000 
     14 C17        12.1710   51.5780   61.5730 C.3       1 MOL         0.0000 
     15 C18        10.2460   51.9440   59.3240 C.ar      1 MOL        -0.1435 
     16 C19         9.4710   50.7820   59.2300 C.ar      1 MOL        -0.1500 
     17 C20         8.1070   50.8200   59.5160 C.ar      1 MOL        -0.1500 
     18 C21         7.5080   52.0070   59.9210 C.ar      1 MOL         0.0825 
     19 O22         6.1850   52.0180   60.2410 O.3       1 MOL        -0.5325 
     20 C23         8.2710   53.1650   60.0200 C.ar      1 MOL        -0.1500 
     21 C24         9.6320   53.1370   59.7180 C.ar      1 MOL        -0.1500 
     22 H1         17.6760   51.0660   58.9720 H         1 MOL         0.4500 
     23 H2         17.1580   50.0870   56.9880 H         1 MOL         0.1500 
     24 H3         15.3490   49.0350   55.6550 H         1 MOL         0.1500 
     25 H4         12.9770   49.3060   56.3600 H         1 MOL         0.1500 
     26 H5         11.9520   52.6940   58.2670 H         1 MOL         0.0000 
     27 H6         12.5780   53.3380   60.4380 H         1 MOL         0.0000 
     28 H7         14.7120   52.8010   60.1370 H         1 MOL         0.0000 
     29 H8         15.5040   51.1310   61.6300 H         1 MOL         0.0000 
     30 H9         14.3130   49.9550   61.0830 H         1 MOL         0.0000 
     31 H10        13.7490   52.4010   62.8140 H         1 MOL         0.0000 
     32 H11        13.3830   50.7080   63.1940 H         1 MOL         0.0000 
     33 H12        11.7560   50.5930   61.3540 H         1 MOL         0.0000 
     34 H13        11.4150   52.1580   62.1040 H         1 MOL         0.0000 
     35 H14         9.9260   49.8370   58.9470 H         1 MOL         0.1500 
     36 H15         7.5140   49.9150   59.4580 H         1 MOL         0.1500 
     37 H16         5.9910   52.8590   60.8170 H         1 MOL         0.4500 
     38 H17         7.8160   54.0920   60.3630 H         1 MOL         0.1500 
     39 H18        10.2190   54.0470   59.8230 H         1 MOL         0.1500 
@<TRIPOS>BOND
     1    1    2 ar   
     2    1    7 ar   
     3    1   11 1    
     4    2    3 1    
     5    2    4 ar   
     6    4    5 ar   
     7    5    6 ar   
     8    6    7 ar   
     9    7    8 1    
    10    8    9 1    
    11    9   10 1    
    12    9   15 1    
    13   10   11 1    
    14   10   14 1    
    15   11   12 1    
    16   12   13 1    
    17   13   14 1    
    18   15   16 ar   
    19   15   21 ar   
    20   16   17 ar   
    21   17   18 ar   
    22   18   19 1    
    23   18   20 ar   
    24   20   21 ar   
    25    3   22 1    
    26    4   23 1    
    27    5   24 1    
    28    6   25 1    
    29    9   26 1    
    30   10   27 1    
    31   11   28 1    
    32   12   29 1    
    33   12   30 1    
    34   13   31 1    
    35   13   32 1    
    36   14   33 1    
    37   14   34 1    
    38   16   35 1    
    39   17   36 1    
    40   19   37 1    
    41   20   38 1    
    42   21   39 1    
@<TRIPOS>SUBSTRUCTURE
     1 MOL         1 PERM              0 ****  ****    0 ROOT 
@<TRIPOS>NORMAL
@<TRIPOS>ALT_TYPE
MMFF94_ALT_TYPE_SET 
MMFF94 9 CR 10 CR 11 CR 12 CR 13 CR 14 CR 1 CB 2 CB 4 CB 5 CB 6 CB 7 CB \
15 CB 16 CB 17 CB 18 CB 20 CB 21 CB 23 HC 24 HC 25 HC \
26 HC 27 HC 28 HC 29 HC 30 HC 31 HC 32 HC 33 HC 34 HC \
35 HC 36 HC 38 HC 39 HC 22 HOCC 37 HOCC 3 OC=C 8 OC=C \
19 OC=C 
