#	Name:			3mss_ligand
#	Creating user name:	suminyi
#	Creation time:		Sun Sep 30 06:49:06 2018

#	Modifying user name:	suminyi
#	Modification time:	Sun Sep 30 06:49:06 2018

@<TRIPOS>MOLECULE
3mss_ligand
   42    43     1     1     0
SMALL
MMFF94_CHARGES


@<TRIPOS>ATOM
      1 N1        -11.2200   -3.2570  -32.8550 N.4       1 MS7        -0.8530 
      2 C4        -11.7960   -3.2280  -31.5030 C.3       1 MS7         0.5640 
      3 C6        -10.9210   -2.3020  -30.5940 C.3       1 MS7         0.1435 
      4 C9         -9.4190   -2.6690  -30.6740 C.ar      1 MS7        -0.1435 
      5 C10        -8.5230   -1.8830  -31.4210 C.ar      1 MS7        -0.1500 
      6 C12        -7.1530   -2.2020  -31.5140 C.ar      1 MS7        -0.1500 
      7 C14        -6.6630   -3.3380  -30.8330 C.ar      1 MS7         0.0825 
      8 C15        -7.5440   -4.1240  -30.0780 C.ar      1 MS7        -0.1500 
      9 C17        -8.9170   -3.7940  -29.9950 C.ar      1 MS7        -0.1500 
     10 O19        -5.3060   -3.6910  -30.8590 O.3       1 MS7        -0.3625 
     11 C20        -4.7980   -4.9980  -30.5120 C.3       1 MS7         0.4235 
     12 C23        -3.2950   -4.8830  -30.5210 C.ar      1 MS7        -0.1435 
     13 C24        -2.6650   -3.6910  -30.1680 C.ar      1 MS7        -0.1500 
     14 C26        -1.2710   -3.6230  -30.1650 C.ar      1 MS7        -0.1500 
     15 C28        -0.5240   -4.7450  -30.5980 C.ar      1 MS7        -0.1500 
     16 C30        -1.1880   -5.8980  -31.0060 C.ar      1 MS7        -0.1500 
     17 C32        -2.5670   -5.9950  -30.9590 C.ar      1 MS7        -0.1500 
     18 C34       -13.2270   -2.7410  -31.5430 C.2       1 MS7         0.5690 
     19 O35       -13.3660   -1.5930  -31.9460 O.2       1 MS7        -0.5700 
     20 N36       -14.2810   -3.5390  -31.1410 N.am      1 MS7        -0.7301 
     21 C38       -15.6800   -3.0700  -31.1660 C.3       1 MS7         0.3001 
     22 H1        -10.2676   -3.5837  -32.8075 H         1 MS7         0.4500 
     23 H2        -11.2376   -2.3288  -33.2477 H         1 MS7         0.4500 
     24 H3        -11.7597   -3.8784  -33.4369 H         1 MS7         0.4500 
     25 H4        -11.7844   -4.2470  -31.0889 H         1 MS7         0.0000 
     26 H5        -11.2575   -2.4055  -29.5519 H         1 MS7         0.0000 
     27 H6        -11.0503   -1.2592  -30.9192 H         1 MS7         0.0000 
     28 H7         -8.8964   -1.0075  -31.9397 H         1 MS7         0.1500 
     29 H8         -6.4840   -1.5831  -32.1009 H         1 MS7         0.1500 
     30 H9         -7.1692   -4.9945  -29.5518 H         1 MS7         0.1500 
     31 H10        -9.5854   -4.4109  -29.4054 H         1 MS7         0.1500 
     32 H11        -5.1275   -5.7433  -31.2508 H         1 MS7         0.0000 
     33 H12        -5.1517   -5.2912  -29.5125 H         1 MS7         0.0000 
     34 H13        -3.2540   -2.8221  -29.8975 H         1 MS7         0.1500 
     35 H14        -0.7664   -2.7221  -29.8352 H         1 MS7         0.1500 
     36 H15         0.5592   -4.7062  -30.6117 H         1 MS7         0.1500 
     37 H16        -0.6106   -6.7404  -31.3694 H         1 MS7         0.1500 
     38 H17        -3.0706   -6.9085  -31.2537 H         1 MS7         0.1500 
     39 H18       -14.0890   -4.4671  -30.8219 H         1 MS7         0.3700 
     40 H19       -16.3417   -3.8708  -30.8041 H         1 MS7         0.0000 
     41 H20       -15.9585   -2.8017  -32.1958 H         1 MS7         0.0000 
     42 H21       -15.7827   -2.1880  -30.5167 H         1 MS7         0.0000 
@<TRIPOS>BOND
     1    1    2 1    
     2    2    3 1    
     3    2   18 1    
     4    3    4 1    
     5    4    5 ar   
     6    4    9 ar   
     7    5    6 ar   
     8    6    7 ar   
     9    7    8 ar   
    10    7   10 1    
    11    8    9 ar   
    12   10   11 1    
    13   11   12 1    
    14   12   13 ar   
    15   12   17 ar   
    16   13   14 ar   
    17   14   15 ar   
    18   15   16 ar   
    19   16   17 ar   
    20   18   19 2    
    21   18   20 am   
    22   20   21 1    
    23    1   22 1    
    24    1   23 1    
    25    1   24 1    
    26    2   25 1    
    27    3   26 1    
    28    3   27 1    
    29    5   28 1    
    30    6   29 1    
    31    8   30 1    
    32    9   31 1    
    33   11   32 1    
    34   11   33 1    
    35   13   34 1    
    36   14   35 1    
    37   15   36 1    
    38   16   37 1    
    39   17   38 1    
    40   20   39 1    
    41   21   40 1    
    42   21   41 1    
    43   21   42 1    
@<TRIPOS>SUBSTRUCTURE
     1 MS7         1 PERM              0 ****  ****    0 ROOT 
@<TRIPOS>NORMAL
@<TRIPOS>ALT_TYPE
MMFF94_ALT_TYPE_SET 
MMFF94 2 CR 3 CR 11 CR 21 CR 4 CB 5 CB 6 CB 7 CB 8 CB 9 CB 12 CB 13 CB \
14 CB 15 CB 16 CB 17 CB 18 C=ON 25 HC 26 HC 27 HC 28 HC \
29 HC 30 HC 31 HC 32 HC 33 HC 34 HC 35 HC 36 HC 37 HC \
38 HC 40 HC 41 HC 42 HC 39 HNCO 22 HNR+ 23 HNR+ 24 HNR+ \
19 O=CN 10 OC=C 1 NR+ 20 NC=O 
