#	Name:			3mss_ligand
#	Creating user name:	suminyi
#	Creation time:		Sun Sep 30 06:51:00 2018

#	Modifying user name:	suminyi
#	Modification time:	Sun Sep 30 06:51:00 2018

@<TRIPOS>MOLECULE
3mss_ligand
   42    43     1     1     0
SMALL
MMFF94_CHARGES


@<TRIPOS>ATOM
      1 N1        -11.2350   -2.9220  -32.8570 N.4       1 MOL        -0.8530 
      2 C4        -11.9110   -2.9670  -31.4910 C.3       1 MOL         0.5640 
      3 C6        -11.0750   -2.1530  -30.4740 C.3       1 MOL         0.1435 
      4 C9         -9.5970   -2.5270  -30.5980 C.ar      1 MOL        -0.1435 
      5 C10        -8.7120   -1.6930  -31.2880 C.ar      1 MOL        -0.1500 
      6 C12        -7.3660   -2.0410  -31.4050 C.ar      1 MOL        -0.1500 
      7 C14        -6.8840   -3.2060  -30.8180 C.ar      1 MOL         0.0825 
      8 C15        -7.7630   -4.0320  -30.1100 C.ar      1 MOL        -0.1500 
      9 C17        -9.1120   -3.6920  -29.9990 C.ar      1 MOL        -0.1500 
     10 O19        -5.5330   -3.4760  -30.9400 O.3       1 MOL        -0.3625 
     11 C20        -4.9300   -4.7120  -30.4890 C.3       1 MOL         0.4235 
     12 C23        -3.4150   -4.6440  -30.5730 C.ar      1 MOL        -0.1435 
     13 C24        -2.7190   -3.5170  -30.1280 C.ar      1 MOL        -0.1500 
     14 C26        -1.3240   -3.5140  -30.0920 C.ar      1 MOL        -0.1500 
     15 C28        -0.6140   -4.6320  -30.5250 C.ar      1 MOL        -0.1500 
     16 C30        -1.3070   -5.7450  -30.9950 C.ar      1 MOL        -0.1500 
     17 C32        -2.6980   -5.7570  -31.0120 C.ar      1 MOL        -0.1500 
     18 C34       -13.3640   -2.4990  -31.5780 C.2       1 MOL         0.5690 
     19 O35       -13.6850   -1.7940  -32.5100 O.2       1 MOL        -0.5700 
     20 N36       -14.2570   -2.9990  -30.7060 N.am      1 MOL        -0.7301 
     21 C38       -15.7020   -2.7310  -30.8010 C.3       1 MOL         0.3001 
     22 H1        -10.2060   -2.9990  -32.7480 H         1 MOL         0.4500 
     23 H2        -11.4560   -1.9910  -33.2670 H         1 MOL         0.4500 
     24 H3        -11.6180   -3.6240  -33.5120 H         1 MOL         0.4500 
     25 H4        -11.9340   -4.0110  -31.1670 H         1 MOL         0.0000 
     26 H5        -11.4250   -2.3360  -29.4530 H         1 MOL         0.0000 
     27 H6        -11.2060   -1.0780  -30.6430 H         1 MOL         0.0000 
     28 H7         -9.0560   -0.7440  -31.7010 H         1 MOL         0.1500 
     29 H8         -6.6690   -1.3790  -31.9140 H         1 MOL         0.1500 
     30 H9         -7.4010   -4.9250  -29.6100 H         1 MOL         0.1500 
     31 H10        -9.7770   -4.3250  -29.4150 H         1 MOL         0.1500 
     32 H11        -5.3210   -5.5360  -31.0910 H         1 MOL         0.0000 
     33 H12        -5.2110   -4.8660  -29.4520 H         1 MOL         0.0000 
     34 H13        -3.2660   -2.6410  -29.7910 H         1 MOL         0.1500 
     35 H14        -0.7910   -2.6410  -29.7180 H         1 MOL         0.1500 
     36 H15         0.4750   -4.6390  -30.4970 H         1 MOL         0.1500 
     37 H16        -0.7670   -6.6180  -31.3350 H         1 MOL         0.1500 
     38 H17        -3.2170   -6.6520  -31.3490 H         1 MOL         0.1500 
     39 H18       -13.9360   -3.5390  -29.9210 H         1 MOL         0.3700 
     40 H19       -16.2650   -3.5570  -30.3570 H         1 MOL         0.0000 
     41 H20       -16.0020   -2.6280  -31.8500 H         1 MOL         0.0000 
     42 H21       -15.9410   -1.8030  -30.2730 H         1 MOL         0.0000 
@<TRIPOS>BOND
     1    1    2 1    
     2    2    3 1    
     3    2   18 1    
     4    3    4 1    
     5    4    5 ar   
     6    4    9 ar   
     7    5    6 ar   
     8    6    7 ar   
     9    7    8 ar   
    10    7   10 1    
    11    8    9 ar   
    12   10   11 1    
    13   11   12 1    
    14   12   13 ar   
    15   12   17 ar   
    16   13   14 ar   
    17   14   15 ar   
    18   15   16 ar   
    19   16   17 ar   
    20   18   19 2    
    21   18   20 am   
    22   20   21 1    
    23    1   22 1    
    24    1   23 1    
    25    1   24 1    
    26    2   25 1    
    27    3   26 1    
    28    3   27 1    
    29    5   28 1    
    30    6   29 1    
    31    8   30 1    
    32    9   31 1    
    33   11   32 1    
    34   11   33 1    
    35   13   34 1    
    36   14   35 1    
    37   15   36 1    
    38   16   37 1    
    39   17   38 1    
    40   20   39 1    
    41   21   40 1    
    42   21   41 1    
    43   21   42 1    
@<TRIPOS>SUBSTRUCTURE
     1 MOL         1 PERM              0 ****  ****    0 ROOT 
@<TRIPOS>NORMAL
@<TRIPOS>ALT_TYPE
MMFF94_ALT_TYPE_SET 
MMFF94 2 CR 3 CR 11 CR 21 CR 4 CB 5 CB 6 CB 7 CB 8 CB 9 CB 12 CB 13 CB \
14 CB 15 CB 16 CB 17 CB 18 C=ON 25 HC 26 HC 27 HC 28 HC \
29 HC 30 HC 31 HC 32 HC 33 HC 34 HC 35 HC 36 HC 37 HC \
38 HC 40 HC 41 HC 42 HC 39 HNCO 22 HNR+ 23 HNR+ 24 HNR+ \
19 O=CN 10 OC=C 1 NR+ 20 NC=O 
