#	Name:			3f3a_ligand
#	Creating user name:	suminyi
#	Creation time:		Sun Sep 30 06:48:43 2018

#	Modifying user name:	suminyi
#	Modification time:	Sun Sep 30 06:48:43 2018

@<TRIPOS>MOLECULE
3f3a_ligand
   27    28     1     1     0
SMALL
MMFF94_CHARGES


@<TRIPOS>ATOM
      1 N         -25.1770   -3.4330  -19.1820 N.4       1 TRP        -0.8530 
      2 CA        -26.1580   -4.5040  -19.1190 C.3       1 TRP         0.3970 
      3 C         -25.7910   -5.5780  -18.0880 C.2       1 TRP         0.9060 
      4 O         -26.6200   -6.3700  -17.6510 O.co2     1 TRP        -0.9000 
      5 CB        -26.2890   -5.1750  -20.4970 C.3       1 TRP         0.1810 
      6 CG        -26.6810   -4.2690  -21.6110 C.2       1 TRP        -0.1810 
      7 CD1       -25.8810   -3.8350  -22.6350 C.2       1 TRP        -0.3016 
      8 CD2       -27.9760   -3.6980  -21.8440 C.ar      1 TRP         0.0000 
      9 NE1       -26.5990   -3.0380  -23.4920 N.pl3     1 TRP         0.0332 
     10 CE2       -27.8880   -2.9390  -23.0400 C.ar      1 TRP        -0.1516 
     11 CE3       -29.2030   -3.7690  -21.1710 C.ar      1 TRP        -0.1500 
     12 CZ2       -28.9740   -2.2400  -23.5720 C.ar      1 TRP        -0.1500 
     13 CZ3       -30.2910   -3.0720  -21.6990 C.ar      1 TRP        -0.1500 
     14 CH2       -30.1660   -2.3180  -22.9010 C.ar      1 TRP        -0.1500 
     15 OXT       -24.6380   -5.7000  -17.6730 O.co2     1 TRP        -0.9000 
     16 H1        -25.4630   -2.7555  -19.8714 H         1 TRP         0.4500 
     17 H2        -24.2795   -3.8140  -19.4376 H         1 TRP         0.4500 
     18 H3        -25.1083   -2.9868  -18.2808 H         1 TRP         0.4500 
     19 H4        -27.1277   -4.0671  -18.8384 H         1 TRP         0.0000 
     20 H5        -27.0493   -5.9661  -20.4189 H         1 TRP         0.0000 
     21 H6        -25.3172   -5.6240  -20.7501 H         1 TRP         0.0000 
     22 H7        -24.8278   -4.0859  -22.7523 H         1 TRP         0.1500 
     23 H8        -26.2274   -2.5864  -24.3399 H         1 TRP         0.2700 
     24 H9        -29.3048   -4.3512  -20.2623 H         1 TRP         0.1500 
     25 H10       -28.8774   -1.6579  -24.4813 H         1 TRP         0.1500 
     26 H11       -31.2456   -3.1050  -21.1865 H         1 TRP         0.1500 
     27 H12       -31.0312   -1.7955  -23.2927 H         1 TRP         0.1500 
@<TRIPOS>BOND
     1    2    1 1    
     2    2    5 1    
     3    2    3 1    
     4    3    4 ar   
     5    3   15 ar   
     6    5    6 1    
     7    6    7 2    
     8    6    8 1    
     9    8   11 ar   
    10    8   10 ar   
    11   10   12 ar   
    12   10    9 1    
    13    9    7 1    
    14   12   14 ar   
    15   14   13 ar   
    16   13   11 ar   
    17    1   16 1    
    18    1   17 1    
    19    1   18 1    
    20    2   19 1    
    21    5   20 1    
    22    5   21 1    
    23    7   22 1    
    24    9   23 1    
    25   11   24 1    
    26   12   25 1    
    27   13   26 1    
    28   14   27 1    
@<TRIPOS>SUBSTRUCTURE
     1 TRP         1 PERM              0 ****  ****    0 ROOT 
@<TRIPOS>NORMAL
@<TRIPOS>ALT_TYPE
MMFF94_ALT_TYPE_SET 
MMFF94 2 CR 5 CR 7 C5A 10 C5A 6 C5B 8 C5B 11 CB 12 CB 13 CB 14 CB 3 CO2M \
19 HC 20 HC 21 HC 22 HC 24 HC 25 HC 26 HC 27 HC 23 HPYL \
16 HNR+ 17 HNR+ 18 HNR+ 4 O2CM 15 O2CM 9 NPYL 1 NR+ \

