#	Name:			3f3a_ligand
#	Creating user name:	suminyi
#	Creation time:		Sun Sep 30 06:50:59 2018

#	Modifying user name:	suminyi
#	Modification time:	Sun Sep 30 06:50:59 2018

@<TRIPOS>MOLECULE
3f3a_ligand
   27    28     1     1     0
SMALL
MMFF94_CHARGES


@<TRIPOS>ATOM
      1 N         -25.0970   -3.6330  -19.2380 N.4       1 MOL        -0.8530 
      2 CA        -26.1880   -4.7080  -19.2660 C.3       1 MOL         0.3970 
      3 C         -26.1060   -5.8820  -18.2880 C.2       1 MOL         0.9060 
      4 O         -27.1350   -6.5170  -18.1150 O.co2     1 MOL        -0.9000 
      5 CB        -26.2910   -5.3220  -20.6660 C.3       1 MOL         0.1810 
      6 CG        -26.6560   -4.3150  -21.6990 C.2       1 MOL        -0.1810 
      7 CD1       -25.8020   -3.9350  -22.7140 C.2       1 MOL        -0.3016 
      8 CD2       -27.8920   -3.6780  -21.9570 C.ar      1 MOL         0.0000 
      9 NE1       -26.4970   -3.0920  -23.5730 N.pl3     1 MOL         0.0332 
     10 CE2       -27.7530   -2.9710  -23.1090 C.ar      1 MOL        -0.1516 
     11 CE3       -29.0960   -3.7360  -21.2710 C.ar      1 MOL        -0.1500 
     12 CZ2       -28.8220   -2.3140  -23.6970 C.ar      1 MOL        -0.1500 
     13 CZ3       -30.1840   -3.0570  -21.8270 C.ar      1 MOL        -0.1500 
     14 CH2       -30.0560   -2.3770  -23.0420 C.ar      1 MOL        -0.1500 
     15 OXT       -25.0150   -6.3460  -18.0450 O.co2     1 MOL        -0.9000 
     16 H1        -25.3330   -2.8060  -19.8260 H         1 MOL         0.4500 
     17 H2        -24.1870   -3.9900  -19.5790 H         1 MOL         0.4500 
     18 H3        -24.9270   -3.2750  -18.2650 H         1 MOL         0.4500 
     19 H4        -27.1220   -4.2020  -19.0170 H         1 MOL         0.0000 
     20 H5        -27.0450   -6.1130  -20.6740 H         1 MOL         0.0000 
     21 H6        -25.3350   -5.7840  -20.9150 H         1 MOL         0.0000 
     22 H7        -24.7780   -4.2280  -22.9170 H         1 MOL         0.1500 
     23 H8        -26.1600   -2.7650  -24.4730 H         1 MOL         0.2700 
     24 H9        -29.1900   -4.2930  -20.3440 H         1 MOL         0.1500 
     25 H10       -28.7030   -1.7920  -24.6400 H         1 MOL         0.1500 
     26 H11       -31.1430   -3.0690  -21.3220 H         1 MOL         0.1500 
     27 H12       -30.9300   -1.9080  -23.4730 H         1 MOL         0.1500 
@<TRIPOS>BOND
     1    2    1 1    
     2    2    5 1    
     3    2    3 1    
     4    3    4 ar   
     5    3   15 ar   
     6    5    6 1    
     7    6    7 2    
     8    6    8 1    
     9    8   11 ar   
    10    8   10 ar   
    11   10   12 ar   
    12   10    9 1    
    13    9    7 1    
    14   12   14 ar   
    15   14   13 ar   
    16   13   11 ar   
    17    1   16 1    
    18    1   17 1    
    19    1   18 1    
    20    2   19 1    
    21    5   20 1    
    22    5   21 1    
    23    7   22 1    
    24    9   23 1    
    25   11   24 1    
    26   12   25 1    
    27   13   26 1    
    28   14   27 1    
@<TRIPOS>SUBSTRUCTURE
     1 MOL         1 PERM              0 ****  ****    0 ROOT 
@<TRIPOS>NORMAL
@<TRIPOS>ALT_TYPE
MMFF94_ALT_TYPE_SET 
MMFF94 2 CR 5 CR 7 C5A 10 C5A 6 C5B 8 C5B 11 CB 12 CB 13 CB 14 CB 3 CO2M \
19 HC 20 HC 21 HC 22 HC 24 HC 25 HC 26 HC 27 HC 23 HPYL \
16 HNR+ 17 HNR+ 18 HNR+ 4 O2CM 15 O2CM 9 NPYL 1 NR+ \

