#	Name:			2zb1_ligand
#	Creating user name:	suminyi
#	Creation time:		Sun Sep 30 06:48:44 2018

#	Modifying user name:	suminyi
#	Modification time:	Sun Sep 30 06:48:44 2018

@<TRIPOS>MOLECULE
2zb1_ligand
   47    50     1     1     0
SMALL
MMFF94_CHARGES


@<TRIPOS>ATOM
      1 O2         45.7200   34.8960   32.5820 O.2       1 GK4        -0.5700 
      2 C17        45.7430   33.7180   32.1950 C.2       1 GK4         0.5438 
      3 N3         46.9130   33.0920   31.9880 N.am      1 GK4        -0.7301 
      4 C18        48.1540   33.8290   32.1750 C.3       1 GK4         0.3951 
      5 C19        49.2800   33.1550   31.4260 C.3       1 GK4        -0.1950 
      6 C21        49.2780   33.6720   29.9930 C.3       1 GK4        -0.2000 
      7 C20        50.2910   34.2050   31.0040 C.3       1 GK4        -0.2000 
      8 C14        44.4420   32.9440   32.0480 C.ar      1 GK4         0.0862 
      9 C13        44.4170   31.5670   31.7720 C.ar      1 GK4        -0.1500 
     10 C12        43.2070   30.8760   31.6830 C.ar      1 GK4        -0.1500 
     11 C15        43.2340   33.6040   32.2620 C.ar      1 GK4        -0.1500 
     12 C16        42.0360   32.9150   32.1840 C.ar      1 GK4        -0.1500 
     13 C11        42.0000   31.5660   31.8690 C.ar      1 GK4         0.0000 
     14 C9         40.7560   30.9350   31.8330 C.ar      1 GK4         0.0000 
     15 C7         39.7590   31.1380   30.8780 C.ar      1 GK4        -0.1435 
     16 C8         39.9510   32.0670   29.7180 C.3       1 GK4         0.1435 
     17 C6         38.5430   30.4580   30.9870 C.ar      1 GK4        -0.1500 
     18 C5         38.3010   29.5920   32.0460 C.ar      1 GK4        -0.1500 
     19 C10        40.4930   30.0690   32.8940 C.ar      1 GK4        -0.1500 
     20 C4         39.2910   29.3860   33.0070 C.ar      1 GK4         0.0530 
     21 C3         39.1150   28.5320   34.1010 C.2       1 GK4         0.4251 
     22 N2         40.0380   28.3150   35.0720 N.2       1 GK4        -0.3381 
     23 N1         39.4920   27.4050   35.9820 N.2       1 GK4        -0.3381 
     24 O1         38.0990   27.8400   34.3740 O.3       1 GK4        -0.2800 
     25 C2         38.2920   27.1830   35.4370 C.2       1 GK4         0.2981 
     26 C1         37.1470   26.3110   35.8800 C.3       1 GK4         0.1800 
     27 H1         46.9313   32.1319   31.7090 H         1 GK4         0.3700 
     28 H2         48.3991   33.8616   33.2468 H         1 GK4         0.0000 
     29 H3         48.0283   34.8541   31.7963 H         1 GK4         0.0000 
     30 H4         49.5226   32.1273   31.7341 H         1 GK4         0.1000 
     31 H5         48.4593   34.3169   29.6411 H         1 GK4         0.1000 
     32 H6         49.6102   33.0201   29.1716 H         1 GK4         0.1000 
     33 H7         51.3540   33.9384   30.9100 H         1 GK4         0.1000 
     34 H8         50.2031   35.2352   31.3795 H         1 GK4         0.1000 
     35 H9         45.3494   31.0337   31.6262 H         1 GK4         0.1500 
     36 H10        43.2004   29.8129   31.4715 H         1 GK4         0.1500 
     37 H11        43.2322   34.6635   32.4910 H         1 GK4         0.1500 
     38 H12        41.1074   33.4412   32.3731 H         1 GK4         0.1500 
     39 H13        39.0425   32.0718   29.0979 H         1 GK4         0.0000 
     40 H14        40.8054   31.7277   29.1140 H         1 GK4         0.0000 
     41 H15        40.1460   33.0834   30.0906 H         1 GK4         0.0000 
     42 H16        37.7775   30.6084   30.2343 H         1 GK4         0.1500 
     43 H17        37.3490   29.0796   32.1251 H         1 GK4         0.1500 
     44 H18        41.2519   29.9251   33.6545 H         1 GK4         0.1500 
     45 H19        37.4216   25.7889   36.8085 H         1 GK4         0.0000 
     46 H20        36.9241   25.5722   35.0961 H         1 GK4         0.0000 
     47 H21        36.2589   26.9349   36.0591 H         1 GK4         0.0000 
@<TRIPOS>BOND
     1    1    2 2    
     2    2    3 am   
     3    2    8 1    
     4    3    4 1    
     5    4    5 1    
     6    5    6 1    
     7    5    7 1    
     8    6    7 1    
     9    8    9 ar   
    10    8   11 ar   
    11    9   10 ar   
    12   10   13 ar   
    13   11   12 ar   
    14   12   13 ar   
    15   13   14 1    
    16   14   15 ar   
    17   14   19 ar   
    18   15   16 1    
    19   15   17 ar   
    20   17   18 ar   
    21   18   20 ar   
    22   19   20 ar   
    23   20   21 1    
    24   21   22 2    
    25   21   24 1    
    26   22   23 1    
    27   23   25 2    
    28   24   25 1    
    29   25   26 1    
    30    3   27 1    
    31    4   28 1    
    32    4   29 1    
    33    5   30 1    
    34    6   31 1    
    35    6   32 1    
    36    7   33 1    
    37    7   34 1    
    38    9   35 1    
    39   10   36 1    
    40   11   37 1    
    41   12   38 1    
    42   16   39 1    
    43   16   40 1    
    44   16   41 1    
    45   17   42 1    
    46   18   43 1    
    47   19   44 1    
    48   26   45 1    
    49   26   46 1    
    50   26   47 1    
@<TRIPOS>SUBSTRUCTURE
     1 GK4         1 PERM              0 ****  ****    0 ROOT 
@<TRIPOS>NORMAL
@<TRIPOS>ALT_TYPE
MMFF94_ALT_TYPE_SET 
MMFF94 5 CR3R 6 CR3R 7 CR3R 4 CR 16 CR 26 CR 21 C5A 25 C5A 8 CB 9 CB \
10 CB 11 CB 12 CB 13 CB 14 CB 15 CB 17 CB 18 CB 19 CB \
20 CB 2 C=ON 28 HC 29 HC 30 HC 31 HC 32 HC 33 HC 34 HC \
35 HC 36 HC 37 HC 38 HC 39 HC 40 HC 41 HC 42 HC 43 HC \
44 HC 45 HC 46 HC 47 HC 27 HNCO 24 OFUR 1 O=CN 22 N5B \
23 N5B 3 NC=O 
