#	Name:			2zb1_ligand
#	Creating user name:	suminyi
#	Creation time:		Sun Sep 30 06:51:03 2018

#	Modifying user name:	suminyi
#	Modification time:	Sun Sep 30 06:51:04 2018

@<TRIPOS>MOLECULE
2zb1_ligand
   47    50     1     1     0
SMALL
MMFF94_CHARGES


@<TRIPOS>ATOM
      1 O2         45.6730   35.0420   32.8390 O.2       1 MOL        -0.5700 
      2 C17        45.7780   33.9040   32.4070 C.2       1 MOL         0.5438 
      3 N3         46.9830   33.3670   32.1470 N.am      1 MOL        -0.7301 
      4 C18        48.2580   34.0640   32.3130 C.3       1 MOL         0.3951 
      5 C19        49.3340   33.4390   31.4480 C.3       1 MOL        -0.1950 
      6 C21        49.3280   33.6610   29.9620 C.3       1 MOL        -0.2000 
      7 C20        50.3890   34.2970   30.8130 C.3       1 MOL        -0.2000 
      8 C14        44.5740   33.0270   32.1600 C.ar      1 MOL         0.0862 
      9 C13        44.6480   31.7040   31.6880 C.ar      1 MOL        -0.1500 
     10 C12        43.4890   30.9330   31.5330 C.ar      1 MOL        -0.1500 
     11 C15        43.3190   33.5410   32.4830 C.ar      1 MOL        -0.1500 
     12 C16        42.1800   32.7550   32.3630 C.ar      1 MOL        -0.1500 
     13 C11        42.2300   31.4670   31.8360 C.ar      1 MOL         0.0000 
     14 C9         40.9570   30.6740   31.7520 C.ar      1 MOL         0.0000 
     15 C7         39.9360   30.9660   30.8190 C.ar      1 MOL        -0.1435 
     16 C8         40.1100   32.0620   29.7830 C.3       1 MOL         0.1435 
     17 C6         38.7290   30.2640   30.8690 C.ar      1 MOL        -0.1500 
     18 C5         38.4940   29.3180   31.8630 C.ar      1 MOL        -0.1500 
     19 C10        40.7040   29.7230   32.7490 C.ar      1 MOL        -0.1500 
     20 C4         39.4580   29.0940   32.8440 C.ar      1 MOL         0.0530 
     21 C3         39.1640   28.3120   34.0230 C.2       1 MOL         0.4251 
     22 N2         39.8880   28.3620   35.1430 N.2       1 MOL        -0.3381 
     23 N1         39.2050   27.6280   36.0810 N.2       1 MOL        -0.3381 
     24 O1         37.9670   27.6600   34.1890 O.3       1 MOL        -0.2800 
     25 C2         38.1050   27.1930   35.4700 C.2       1 MOL         0.2981 
     26 C1         37.0260   26.4140   36.1480 C.3       1 MOL         0.1800 
     27 H1         47.0260   32.4360   31.7740 H         1 MOL         0.3700 
     28 H2         48.5690   34.0210   33.3620 H         1 MOL         0.0000 
     29 H3         48.1350   35.1100   32.0260 H         1 MOL         0.0000 
     30 H4         49.6450   32.4570   31.7960 H         1 MOL         0.1000 
     31 H5         48.5610   34.3090   29.5440 H         1 MOL         0.1000 
     32 H6         49.6210   32.8350   29.3210 H         1 MOL         0.1000 
     33 H7         51.3970   33.8950   30.7570 H         1 MOL         0.1000 
     34 H8         50.3360   35.3730   30.9540 H         1 MOL         0.1000 
     35 H9         45.6070   31.2420   31.4610 H         1 MOL         0.1500 
     36 H10        43.5700   29.9020   31.2140 H         1 MOL         0.1500 
     37 H11        43.2310   34.5490   32.8860 H         1 MOL         0.1500 
     38 H12        41.2530   33.1120   32.7580 H         1 MOL         0.1500 
     39 H13        39.2530   32.1280   29.1100 H         1 MOL         0.0000 
     40 H14        41.0090   31.8880   29.1890 H         1 MOL         0.0000 
     41 H15        40.2010   33.0240   30.2800 H         1 MOL         0.0000 
     42 H16        37.9370   30.4980   30.1640 H         1 MOL         0.1500 
     43 H17        37.5320   28.8080   31.9110 H         1 MOL         0.1500 
     44 H18        41.4740   29.5110   33.4910 H         1 MOL         0.1500 
     45 H19        37.4580   25.7500   36.8970 H         1 MOL         0.0000 
     46 H20        36.4820   25.8020   35.4390 H         1 MOL         0.0000 
     47 H21        36.3270   27.0770   36.6540 H         1 MOL         0.0000 
@<TRIPOS>BOND
     1    1    2 2    
     2    2    3 am   
     3    2    8 1    
     4    3    4 1    
     5    4    5 1    
     6    5    6 1    
     7    5    7 1    
     8    6    7 1    
     9    8    9 ar   
    10    8   11 ar   
    11    9   10 ar   
    12   10   13 ar   
    13   11   12 ar   
    14   12   13 ar   
    15   13   14 1    
    16   14   15 ar   
    17   14   19 ar   
    18   15   16 1    
    19   15   17 ar   
    20   17   18 ar   
    21   18   20 ar   
    22   19   20 ar   
    23   20   21 1    
    24   21   22 2    
    25   21   24 1    
    26   22   23 1    
    27   23   25 2    
    28   24   25 1    
    29   25   26 1    
    30    3   27 1    
    31    4   28 1    
    32    4   29 1    
    33    5   30 1    
    34    6   31 1    
    35    6   32 1    
    36    7   33 1    
    37    7   34 1    
    38    9   35 1    
    39   10   36 1    
    40   11   37 1    
    41   12   38 1    
    42   16   39 1    
    43   16   40 1    
    44   16   41 1    
    45   17   42 1    
    46   18   43 1    
    47   19   44 1    
    48   26   45 1    
    49   26   46 1    
    50   26   47 1    
@<TRIPOS>SUBSTRUCTURE
     1 MOL         1 PERM              0 ****  ****    0 ROOT 
@<TRIPOS>NORMAL
@<TRIPOS>ALT_TYPE
MMFF94_ALT_TYPE_SET 
MMFF94 5 CR3R 6 CR3R 7 CR3R 4 CR 16 CR 26 CR 21 C5A 25 C5A 8 CB 9 CB \
10 CB 11 CB 12 CB 13 CB 14 CB 15 CB 17 CB 18 CB 19 CB \
20 CB 2 C=ON 28 HC 29 HC 30 HC 31 HC 32 HC 33 HC 34 HC \
35 HC 36 HC 37 HC 38 HC 39 HC 40 HC 41 HC 42 HC 43 HC \
44 HC 45 HC 46 HC 47 HC 27 HNCO 24 OFUR 1 O=CN 22 N5B \
23 N5B 3 NC=O 
