#	Name:			3twp_ligand
#	Creating user name:	suminyi
#	Creation time:		Sun Sep 30 06:48:56 2018

#	Modifying user name:	suminyi
#	Modification time:	Sun Sep 30 06:48:56 2018

@<TRIPOS>MOLECULE
3twp_ligand
   15    15     1     1     0
SMALL
MMFF94_CHARGES


@<TRIPOS>ATOM
      1 C1'        71.0910   80.9060   28.3540 C.2       1 SAL         0.9790 
      2 O1'        71.8730   81.8540   28.6790 O.co2     1 SAL        -0.9000 
      3 O2'        70.8030   79.8640   28.9870 O.co2     1 SAL        -0.9000 
      4 C1         70.4560   80.9640   27.0070 C.ar      1 SAL        -0.1790 
      5 C2         70.7860   82.0490   26.2110 C.ar      1 SAL         0.0825 
      6 C3         70.2040   82.1230   24.9600 C.ar      1 SAL        -0.1500 
      7 C4         69.3330   81.1000   24.5460 C.ar      1 SAL        -0.1500 
      8 C5         69.0080   80.0110   25.3690 C.ar      1 SAL        -0.1500 
      9 C6         69.5790   79.9380   26.6300 C.ar      1 SAL        -0.1500 
     10 O2         71.6710   83.0130   26.6960 O.3       1 SAL        -0.5325 
     11 H1         70.4166   82.9603   24.3052 H         1 SAL         0.1500 
     12 H2         68.8967   81.1545   23.5552 H         1 SAL         0.1500 
     13 H3         68.3246   79.2427   25.0258 H         1 SAL         0.1500 
     14 H4         69.3551   79.1164   27.3007 H         1 SAL         0.1500 
     15 H5         71.9520   82.7717   27.5708 H         1 SAL         0.4500 
@<TRIPOS>BOND
     1    1    2 ar   
     2    1    3 ar   
     3    1    4 1    
     4    4    5 ar   
     5    4    9 ar   
     6    5    6 ar   
     7    5   10 1    
     8    6    7 ar   
     9    7    8 ar   
    10    8    9 ar   
    11    6   11 1    
    12    7   12 1    
    13    8   13 1    
    14    9   14 1    
    15   10   15 1    
@<TRIPOS>SUBSTRUCTURE
     1 SAL         1 PERM              0 ****  ****    0 ROOT 
@<TRIPOS>NORMAL
@<TRIPOS>ALT_TYPE
MMFF94_ALT_TYPE_SET 
MMFF94 4 CB 5 CB 6 CB 7 CB 8 CB 9 CB 1 CO2M 11 HC 12 HC 13 HC 14 HC \
15 HOCC 2 O2CM 3 O2CM 10 OC=C 
