#	Name:			3twp_ligand
#	Creating user name:	suminyi
#	Creation time:		Sun Sep 30 06:50:56 2018

#	Modifying user name:	suminyi
#	Modification time:	Sun Sep 30 06:50:56 2018

@<TRIPOS>MOLECULE
3twp_ligand
   15    15     1     1     0
SMALL
MMFF94_CHARGES


@<TRIPOS>ATOM
      1 C1'        71.4470   81.1100   28.3740 C.2       1 MOL         0.9790 
      2 O1'        72.1390   82.0810   28.6410 O.co2     1 MOL        -0.9000 
      3 O2'        71.3840   80.1330   29.0850 O.co2     1 MOL        -0.9000 
      4 C1         70.7060   81.1400   27.0700 C.ar      1 MOL        -0.1790 
      5 C2         70.8070   82.2400   26.2110 C.ar      1 MOL         0.0825 
      6 C3         70.2270   82.2120   24.9490 C.ar      1 MOL        -0.1500 
      7 C4         69.5220   81.0860   24.5340 C.ar      1 MOL        -0.1500 
      8 C5         69.3470   80.0170   25.4080 C.ar      1 MOL        -0.1500 
      9 C6         69.9300   80.0450   26.6750 C.ar      1 MOL        -0.1500 
     10 O2         71.4960   83.3390   26.6040 O.3       1 MOL        -0.5325 
     11 H1         70.3540   83.0540   24.2770 H         1 MOL         0.1500 
     12 H2         69.1140   81.0400   23.5290 H         1 MOL         0.1500 
     13 H3         68.7810   79.1400   25.0960 H         1 MOL         0.1500 
     14 H4         69.8190   79.1870   27.3400 H         1 MOL         0.1500 
     15 H5         71.8990   82.9780   27.4910 H         1 MOL         0.4500 
@<TRIPOS>BOND
     1    1    2 ar   
     2    1    3 ar   
     3    1    4 1    
     4    4    5 ar   
     5    4    9 ar   
     6    5    6 ar   
     7    5   10 1    
     8    6    7 ar   
     9    7    8 ar   
    10    8    9 ar   
    11    6   11 1    
    12    7   12 1    
    13    8   13 1    
    14    9   14 1    
    15   10   15 1    
@<TRIPOS>SUBSTRUCTURE
     1 MOL         1 PERM              0 ****  ****    0 ROOT 
@<TRIPOS>NORMAL
@<TRIPOS>ALT_TYPE
MMFF94_ALT_TYPE_SET 
MMFF94 4 CB 5 CB 6 CB 7 CB 8 CB 9 CB 1 CO2M 11 HC 12 HC 13 HC 14 HC \
15 HOCC 2 O2CM 3 O2CM 10 OC=C 
