#	Name:			1k1i_ligand
#	Creating user name:	suminyi
#	Creation time:		Sun Sep 30 06:51:10 2018

#	Modifying user name:	suminyi
#	Modification time:	Sun Sep 30 06:51:10 2018

@<TRIPOS>MOLECULE
1k1i_ligand
   64    67     1     1     0
SMALL
MMFF94_CHARGES


@<TRIPOS>ATOM
      1 C65        -1.9260   16.3960   17.8290 C.ar      1 MOL        -0.1435 
      2 C66        -2.2030   15.7550   16.6180 C.ar      1 MOL        -0.1500 
      3 C64        -1.1360   15.7490   18.7810 C.ar      1 MOL        -0.1500 
      4 C63        -0.6750   14.4620   18.5410 C.ar      1 MOL        -0.1500 
      5 C62        -1.0060   13.8000   17.3600 C.ar      1 MOL        -0.1500 
      6 C61        -1.7610   14.4440   16.3720 C.ar      1 MOL        -0.0220 
      7 C25        -2.0580   13.7590   15.0840 C.cat     1 MOL         0.7308 
      8 N43        -1.6970   12.4590   14.8210 N.pl3     1 MOL        -1.1924 
      9 N54        -2.6600   14.3940   14.0280 N.pl3     1 MOL        -1.1924 
     10 C34        -2.4940   17.7810   18.1280 C.3       1 MOL         0.1435 
     11 C31        -1.6670   18.9710   17.5880 C.3       1 MOL         0.4167 
     12 C35        -0.1600   18.7260   17.7920 C.2       1 MOL         0.5690 
     13 O36         0.5160   18.3770   16.8380 O.2       1 MOL        -0.5700 
     14 N81         0.3680   18.8220   19.0510 N.am      1 MOL        -0.6602 
     15 C71        -0.2320   19.5810   20.1980 C.3       1 MOL         0.1941 
     16 C72         0.6490   20.8090   20.5410 C.3       1 MOL         0.0000 
     17 C74         2.6780   19.5560   19.6920 C.3       1 MOL         0.0000 
     18 C75         1.7480   18.3770   19.3500 C.3       1 MOL         0.3001 
     19 C40         2.1020   20.3940   20.8500 C.3       1 MOL         0.0000 
     20 C91        -0.5950   18.7880   21.4610 C.2       1 MOL         0.9060 
     21 O92        -1.4180   19.3130   22.1730 O.co2     1 MOL        -0.9000 
     22 O93        -0.2710   17.6180   21.5860 O.co2     1 MOL        -0.9000 
     23 N29        -2.1020   19.2850   16.1980 N.am      1 MOL        -0.9137 
     24 S12        -2.0560   20.8880   15.8270 S.o2      1 MOL         1.4470 
     25 O32        -2.1550   20.6480   14.3990 O.2       1 MOL        -0.6500 
     26 O33        -3.1420   21.4760   16.6030 O.2       1 MOL        -0.6500 
     27 C2         -0.4600   21.5810   16.1730 C.ar      1 MOL        -0.0090 
     28 C3          0.6810   21.0980   15.5320 C.ar      1 MOL        -0.1500 
     29 C4          1.9110   21.7140   15.7440 C.ar      1 MOL        -0.1500 
     30 C9          0.8500   23.3330   17.1960 C.ar      1 MOL         0.0000 
     31 C10         1.9980   22.8380   16.5640 C.ar      1 MOL         0.0000 
     32 C1         -0.3750   22.6900   17.0130 C.ar      1 MOL        -0.1500 
     33 C5          3.2220   23.4810   16.7440 C.ar      1 MOL        -0.1500 
     34 C6          3.3020   24.6230   17.5390 C.ar      1 MOL        -0.1500 
     35 C7          2.1570   25.1240   18.1570 C.ar      1 MOL        -0.1500 
     36 C8          0.9330   24.4770   17.9910 C.ar      1 MOL        -0.1500 
     37 H1         -2.7860   16.2970   15.8770 H         1 MOL         0.1500 
     38 H2         -0.8510   16.2450   19.7120 H         1 MOL         0.1500 
     39 H3         -0.0350   13.9940   19.2840 H         1 MOL         0.1500 
     40 H4         -0.6090   12.8020   17.1940 H         1 MOL         0.1500 
     41 H5         -2.1150   12.0590   13.9730 H         1 MOL         0.6690 
     42 H6         -1.8230   11.8290   15.6020 H         1 MOL         0.6690 
     43 H7         -3.1100   15.2860   14.2160 H         1 MOL         0.6690 
     44 H8         -3.1640   13.7820   13.3800 H         1 MOL         0.6690 
     45 H9         -2.5700   17.8960   19.2120 H         1 MOL         0.0000 
     46 H10        -3.5130   17.8570   17.7430 H         1 MOL         0.0000 
     47 H11        -1.9430   19.8380   18.1860 H         1 MOL         0.0000 
     48 H12        -1.1920   20.0020   19.9180 H         1 MOL         0.0000 
     49 H13         0.2280   21.3520   21.3910 H         1 MOL         0.0000 
     50 H14         0.6500   21.4960   19.6900 H         1 MOL         0.0000 
     51 H15         3.6600   19.1710   19.9770 H         1 MOL         0.0000 
     52 H16         2.8030   20.1860   18.8070 H         1 MOL         0.0000 
     53 H17         2.1620   17.8330   18.5070 H         1 MOL         0.0000 
     54 H18         1.7360   17.6810   20.1920 H         1 MOL         0.0000 
     55 H19         2.1290   19.8080   21.7720 H         1 MOL         0.0000 
     56 H20         2.7200   21.2820   21.0070 H         1 MOL         0.0000 
     57 H21        -1.4290   18.9370   15.5010 H         1 MOL         0.4200 
     58 H22         0.6190   20.2380   14.8680 H         1 MOL         0.1500 
     59 H23         2.7980   21.3190   15.2550 H         1 MOL         0.1500 
     60 H24        -1.2730   23.0760   17.4980 H         1 MOL         0.1500 
     61 H25         4.1180   23.0930   16.2620 H         1 MOL         0.1500 
     62 H26         4.2610   25.1180   17.6770 H         1 MOL         0.1500 
     63 H27         2.2200   26.0170   18.7740 H         1 MOL         0.1500 
     64 H28         0.0440   24.8740   18.4770 H         1 MOL         0.1500 
@<TRIPOS>BOND
     1    1   10 1    
     2    1    3 ar   
     3    1    2 ar   
     4    2    6 ar   
     5    6    7 1    
     6    6    5 ar   
     7    5    4 ar   
     8    4    3 ar   
     9    7    9 ar   
    10    7    8 ar   
    11   10   11 1    
    12   11   23 1    
    13   11   12 1    
    14   12   14 am   
    15   12   13 2    
    16   14   18 1    
    17   14   15 1    
    18   15   20 1    
    19   15   16 1    
    20   16   19 1    
    21   19   17 1    
    22   17   18 1    
    23   20   22 ar   
    24   20   21 ar   
    25   23   24 am   
    26   24   27 1    
    27   24   26 2    
    28   24   25 2    
    29   27   32 ar   
    30   27   28 ar   
    31   28   29 ar   
    32   29   31 ar   
    33   31   30 ar   
    34   31   33 ar   
    35   33   34 ar   
    36   34   35 ar   
    37   35   36 ar   
    38   36   30 ar   
    39   30   32 ar   
    40    2   37 1    
    41    3   38 1    
    42    4   39 1    
    43    5   40 1    
    44    8   41 1    
    45    8   42 1    
    46    9   43 1    
    47    9   44 1    
    48   10   45 1    
    49   10   46 1    
    50   11   47 1    
    51   15   48 1    
    52   16   49 1    
    53   16   50 1    
    54   17   51 1    
    55   17   52 1    
    56   18   53 1    
    57   18   54 1    
    58   19   55 1    
    59   19   56 1    
    60   23   57 1    
    61   28   58 1    
    62   29   59 1    
    63   32   60 1    
    64   33   61 1    
    65   34   62 1    
    66   35   63 1    
    67   36   64 1    
@<TRIPOS>SUBSTRUCTURE
     1 MOL         1 PERM              0 ****  ****    0 ROOT 
@<TRIPOS>NORMAL
@<TRIPOS>ALT_TYPE
MMFF94_ALT_TYPE_SET 
MMFF94 10 CR 11 CR 15 CR 16 CR 17 CR 18 CR 19 CR 1 CB 2 CB 3 CB 4 CB \
5 CB 6 CB 27 CB 28 CB 29 CB 30 CB 31 CB 32 CB 33 CB 34 CB \
35 CB 36 CB 20 CO2M 7 CNN+ 12 C=ON 37 HC 38 HC 39 HC \
40 HC 45 HC 46 HC 47 HC 48 HC 49 HC 50 HC 51 HC 52 HC \
53 HC 54 HC 55 HC 56 HC 58 HC 59 HC 60 HC 61 HC 62 HC \
63 HC 64 HC 57 HNSO 41 HN 42 HN 43 HN 44 HN 21 O2CM 22 O2CM \
13 O=CN 25 O2S 26 O2S 8 NCN+ 9 NCN+ 23 NSO2 14 NC=O \
24 SO2N 
