#	Name:			3nq9_ligand
#	Creating user name:	suminyi
#	Creation time:		Sun Sep 30 06:50:59 2018

#	Modifying user name:	suminyi
#	Modification time:	Sun Sep 30 06:50:59 2018

@<TRIPOS>MOLECULE
3nq9_ligand
   25    24     1     1     0
SMALL
MMFF94_CHARGES


@<TRIPOS>ATOM
      1 C1         -3.6250   -2.9330  -17.3150 C.2       1 MOL         0.9060 
      2 C2         -2.8270   -4.0820  -17.9050 C.3       1 MOL        -0.1060 
      3 C3         -3.6980   -5.3270  -18.1910 C.3       1 MOL         0.0000 
      4 C4         -3.9840   -6.1560  -16.9190 C.3       1 MOL         0.0000 
      5 C5         -5.4450   -6.6480  -16.8550 C.3       1 MOL         0.0000 
      6 C6         -5.8600   -7.5820  -18.0130 C.3       1 MOL         0.0000 
      7 C7         -7.3860   -7.8140  -17.9690 C.3       1 MOL         0.0000 
      8 C8         -7.8100   -8.9640  -18.8910 C.3       1 MOL         0.0000 
      9 O1         -4.5190   -2.4440  -17.9810 O.co2     1 MOL        -0.9000 
     10 O2         -3.2390   -2.4390  -16.2800 O.co2     1 MOL        -0.9000 
     11 H1         -2.0000   -4.3480  -17.2420 H         1 MOL         0.0000 
     12 H2         -2.3860   -3.7370  -18.8420 H         1 MOL         0.0000 
     13 H3         -3.1980   -5.9630  -18.9240 H         1 MOL         0.0000 
     14 H4         -4.6320   -4.9990  -18.6440 H         1 MOL         0.0000 
     15 H5         -3.7990   -5.5480  -16.0280 H         1 MOL         0.0000 
     16 H6         -3.2980   -7.0050  -16.8700 H         1 MOL         0.0000 
     17 H7         -6.1040   -5.7770  -16.8420 H         1 MOL         0.0000 
     18 H8         -5.5830   -7.1800  -15.9110 H         1 MOL         0.0000 
     19 H9         -5.3270   -8.5320  -17.9200 H         1 MOL         0.0000 
     20 H10        -5.5960   -7.1500  -18.9800 H         1 MOL         0.0000 
     21 H11        -7.9040   -6.8990  -18.2660 H         1 MOL         0.0000 
     22 H12        -7.7000   -8.0490  -16.9500 H         1 MOL         0.0000 
     23 H13        -8.8810   -9.1480  -18.7870 H         1 MOL         0.0000 
     24 H14        -7.2900   -9.8820  -18.6310 H         1 MOL         0.0000 
     25 H15        -7.5800   -8.7250  -19.9300 H         1 MOL         0.0000 
@<TRIPOS>BOND
     1    1    2 1    
     2    1    9 ar   
     3    1   10 ar   
     4    2    3 1    
     5    3    4 1    
     6    4    5 1    
     7    5    6 1    
     8    6    7 1    
     9    7    8 1    
    10    2   11 1    
    11    2   12 1    
    12    3   13 1    
    13    3   14 1    
    14    4   15 1    
    15    4   16 1    
    16    5   17 1    
    17    5   18 1    
    18    6   19 1    
    19    6   20 1    
    20    7   21 1    
    21    7   22 1    
    22    8   23 1    
    23    8   24 1    
    24    8   25 1    
@<TRIPOS>SUBSTRUCTURE
     1 MOL         1 PERM              0 ****  ****    0 ROOT 
@<TRIPOS>NORMAL
@<TRIPOS>ALT_TYPE
MMFF94_ALT_TYPE_SET 
MMFF94 2 CR 3 CR 4 CR 5 CR 6 CR 7 CR 8 CR 1 CO2M 11 HC 12 HC 13 HC 14 HC \
15 HC 16 HC 17 HC 18 HC 19 HC 20 HC 21 HC 22 HC 23 HC \
24 HC 25 HC 9 O2CM 10 O2CM 
