#	Name:			3oe4_ligand
#	Creating user name:	suminyi
#	Creation time:		Sun Sep 30 06:51:08 2018

#	Modifying user name:	suminyi
#	Modification time:	Sun Sep 30 06:51:08 2018

@<TRIPOS>MOLECULE
3oe4_ligand
   51    54     1     1     0
SMALL
MMFF94_CHARGES


@<TRIPOS>ATOM
      1 C1         20.4010  -30.9720   13.6370 C.3       1 MOL         0.2800 
      2 C2         19.0800  -31.7520   13.6600 C.3       1 MOL         0.2800 
      3 C3         18.0240  -30.6290   13.5450 C.3       1 MOL         0.5356 
      4 O4         18.6650  -29.5940   12.7690 O.3       1 MOL        -0.5600 
      5 C5         20.0790  -29.8570   12.6260 C.3       1 MOL         0.4182 
      6 C6         20.2520  -30.3600   11.2150 C.2       1 MOL        -0.2882 
      7 N7         16.7890  -30.9820   12.8660 N.pl3     1 MOL         0.0476 
      8 O8         20.7330  -30.4250   14.9240 O.3       1 MOL        -0.6800 
      9 O9         18.9630  -32.5840   14.8200 O.3       1 MOL        -0.6800 
     10 C10        20.4410  -29.5690   10.1750 C.2       1 MOL        -0.2882 
     11 C11        16.6520  -31.4920   11.5950 C.2       1 MOL         0.0365 
     12 N12        15.3530  -31.5820   11.2160 N.2       1 MOL        -0.5653 
     13 C13        20.6480  -30.1220    8.7970 C.3       1 MOL         0.4383 
     14 N14        21.5160  -29.2260    8.0620 N.am      1 MOL        -0.7301 
     15 C15        22.3580  -29.6130    7.1040 C.2       1 MOL         0.5438 
     16 C16        23.3390  -28.6150    6.5650 C.ar      1 MOL         0.0862 
     17 C17        23.3500  -27.2430    6.8930 C.ar      1 MOL         0.0825 
     18 C18        24.2920  -26.4010    6.2960 C.ar      1 MOL         0.0825 
     19 C19        25.2640  -26.9350    5.4490 C.ar      1 MOL        -0.1500 
     20 C20        25.2780  -28.2970    5.1330 C.ar      1 MOL         0.1330 
     21 C21        24.2970  -29.1170    5.6810 C.ar      1 MOL        -0.1500 
     22 N22        26.3230  -28.8850    4.2520 N.2       1 MOL         0.9070 
     23 O23        22.4450  -26.7190    7.7720 O.3       1 MOL        -0.5325 
     24 O24        24.3120  -25.0490    6.5350 O.3       1 MOL        -0.5325 
     25 O25        22.2770  -30.7460    6.6720 O.2       1 MOL        -0.5700 
     26 O26        26.8670  -28.1690    3.4310 O.2       1 MOL        -0.5200 
     27 O27        26.4900  -30.0940    4.2880 O.3       1 MOL        -0.5200 
     28 C28        15.5580  -30.7050   13.2840 C.ar      1 MOL         0.1054 
     29 C29        14.7160  -31.1060   12.2930 C.ar      1 MOL         0.2272 
     30 C30        13.3510  -30.9740   12.4950 C.ar      1 MOL         0.1600 
     31 N31        12.8720  -30.4460   13.6420 N.ar      1 MOL        -0.6200 
     32 C32        13.7880  -30.0410   14.5470 C.ar      1 MOL         0.4700 
     33 N33        15.1240  -30.1620   14.4280 N.ar      1 MOL        -0.5670 
     34 H1         21.2260  -31.5960   13.2830 H         1 MOL         0.0000 
     35 H2         19.0280  -32.3830   12.7720 H         1 MOL         0.0000 
     36 H3         17.7730  -30.2080   14.5290 H         1 MOL         0.0000 
     37 H4         20.6590  -28.9460   12.8060 H         1 MOL         0.0000 
     38 H5         20.2200  -31.4350   11.0720 H         1 MOL         0.1500 
     39 H6         19.9530  -29.8900   15.3030 H         1 MOL         0.4000 
     40 H7         18.8620  -31.9640   15.6320 H         1 MOL         0.4000 
     41 H8         20.4840  -28.4840   10.3000 H         1 MOL         0.1500 
     42 H9         17.5050  -31.7260   10.9780 H         1 MOL         0.1500 
     43 H10        19.7000  -30.2270    8.2720 H         1 MOL         0.0000 
     44 H11        21.1220  -31.1070    8.8630 H         1 MOL         0.0000 
     45 H12        21.6430  -28.2870    8.4310 H         1 MOL         0.3700 
     46 H13        26.0300  -26.2670    5.0620 H         1 MOL         0.1500 
     47 H14        24.3010  -30.1800    5.4420 H         1 MOL         0.1500 
     48 H15        22.4190  -25.7030    7.7850 H         1 MOL         0.4500 
     49 H16        23.4380  -24.5490    6.4880 H         1 MOL         0.4500 
     50 H17        12.6220  -31.2880   11.7500 H         1 MOL         0.1500 
     51 H18        13.4130  -29.6030   15.4680 H         1 MOL         0.1500 
@<TRIPOS>BOND
     1    1    2 1    
     2    1    5 1    
     3    1    8 1    
     4    2    3 1    
     5    2    9 1    
     6    3    4 1    
     7    3    7 1    
     8    4    5 1    
     9    5    6 1    
    10    6   10 2    
    11    7   11 1    
    12    7   28 1    
    13   10   13 1    
    14   11   12 2    
    15   12   29 1    
    16   13   14 1    
    17   14   15 am   
    18   15   16 1    
    19   15   25 2    
    20   16   17 ar   
    21   16   21 ar   
    22   17   18 ar   
    23   17   23 1    
    24   18   19 ar   
    25   18   24 1    
    26   19   20 ar   
    27   20   21 ar   
    28   20   22 1    
    29   22   26 2    
    30   22   27 2    
    31   28   29 ar   
    32   28   33 ar   
    33   29   30 ar   
    34   30   31 ar   
    35   31   32 ar   
    36   32   33 ar   
    37    1   34 1    
    38    2   35 1    
    39    3   36 1    
    40    5   37 1    
    41    6   38 1    
    42    8   39 1    
    43    9   40 1    
    44   10   41 1    
    45   11   42 1    
    46   13   43 1    
    47   13   44 1    
    48   14   45 1    
    49   19   46 1    
    50   21   47 1    
    51   23   48 1    
    52   24   49 1    
    53   30   50 1    
    54   32   51 1    
@<TRIPOS>SUBSTRUCTURE
     1 MOL         1 PERM              0 ****  ****    0 ROOT 
@<TRIPOS>NORMAL
@<TRIPOS>ALT_TYPE
MMFF94_ALT_TYPE_SET 
MMFF94 1 CR 2 CR 3 CR 5 CR 13 CR 11 C5A 28 C5A 29 C5B 16 CB 17 CB 18 CB \
19 CB 20 CB 21 CB 30 CB 32 CB 15 C=ON 6 C=C 10 C=C 34 HC \
35 HC 36 HC 37 HC 38 HC 41 HC 42 HC 43 HC 44 HC 46 HC \
47 HC 50 HC 51 HC 45 HNCO 48 HOCC 49 HOCC 39 HOR 40 HOR \
25 O=CN 26 O2N 27 O2N 23 OC=C 24 OC=C 4 OR 8 OR 9 OR \
31 NPYD 33 NPYD 7 NPYL 12 N5B 22 NO2 14 NC=O 
