#	Name:			3e5a_ligand
#	Creating user name:	suminyi
#	Creation time:		Sun Sep 30 06:51:09 2018

#	Modifying user name:	suminyi
#	Modification time:	Sun Sep 30 06:51:09 2018

@<TRIPOS>MOLECULE
3e5a_ligand
   62    66     1     1     0
SMALL
MMFF94_CHARGES


@<TRIPOS>ATOM
      1 N1         19.3160   30.2660   22.0610 N.4       1 MOL        -0.9590 
      2 C2         19.8620   31.0630   20.8800 C.3       1 MOL         0.5030 
      3 C3         20.8840   30.3000   20.0140 C.3       1 MOL         0.3691 
      4 N4         22.0050   29.7420   20.8020 N.pl3     1 MOL        -0.8382 
      5 C5         21.8800   29.7880   22.2780 C.3       1 MOL         0.3691 
      6 C6         20.4330   29.4090   22.6740 C.3       1 MOL         0.5030 
      7 C7         18.1630   29.4000   21.5710 C.3       1 MOL         0.5030 
      8 C8         23.0790   29.1500   20.1790 C.ar      1 MOL         0.4100 
      9 C9         23.2010   29.1550   18.8110 C.ar      1 MOL        -0.1500 
     10 C10        24.2950   28.5370   18.2820 C.ar      1 MOL         0.4100 
     11 N11        25.2450   28.0000   19.0280 N.ar      1 MOL        -0.6200 
     12 C12        25.0610   28.0400   20.3500 C.ar      1 MOL         0.7215 
     13 N13        23.9810   28.5630   20.9600 N.ar      1 MOL        -0.6200 
     14 N14        24.3930   28.4650   16.9420 N.pl3     1 MOL        -0.5840 
     15 C15        25.4470   28.1790   16.1240 C.2       1 MOL        -0.0676 
     16 C17        26.7740   27.9690   16.3050 C.2       1 MOL        -0.1500 
     17 C18        27.2750   27.6150   15.0270 C.2       1 MOL         0.1078 
     18 N19        26.3030   27.6000   14.1190 N.2       1 MOL        -0.7068 
     19 N20        25.1910   27.9400   14.8090 N.pl3     1 MOL         0.2996 
     20 C21        28.6720   27.1630   14.7640 C.3       1 MOL         0.1810 
     21 S23        26.3740   27.4140   21.3780 S.3       1 MOL        -0.2030 
     22 C24        27.2800   26.3850   20.2450 C.ar      1 MOL         0.1015 
     23 C25        28.2920   26.9120   19.4470 C.ar      1 MOL        -0.1500 
     24 C26        28.9010   26.1130   18.4780 C.ar      1 MOL        -0.1500 
     25 C27        28.5010   24.7880   18.3020 C.ar      1 MOL         0.1170 
     26 C28        27.5000   24.2630   19.1150 C.ar      1 MOL        -0.1500 
     27 C29        26.9050   25.0580   20.0910 C.ar      1 MOL        -0.1500 
     28 N30        29.0330   23.9600   17.2700 N.am      1 MOL        -0.5470 
     29 C31        30.2650   23.9460   16.7390 C.2       1 MOL         0.6300 
     30 O32        31.1640   24.6810   17.1020 O.2       1 MOL        -0.5700 
     31 C33        30.4400   22.9620   15.6290 C.3       1 MOL        -0.1000 
     32 C34        31.3130   23.3380   14.4600 C.3       1 MOL        -0.2000 
     33 C35        31.7890   22.3220   15.4570 C.3       1 MOL        -0.2000 
     34 H1         18.9640   30.9570   22.7580 H         1 MOL         0.4500 
     35 H2         20.3560   31.9490   21.2850 H         1 MOL         0.0000 
     36 H3         19.0230   31.3900   20.2550 H         1 MOL         0.0000 
     37 H4         21.2530   30.9910   19.2500 H         1 MOL         0.0000 
     38 H5         20.3620   29.4860   19.5110 H         1 MOL         0.0000 
     39 H6         22.1270   30.7910   22.6390 H         1 MOL         0.0000 
     40 H7         22.5590   29.0880   22.7750 H         1 MOL         0.0000 
     41 H8         20.2740   28.3840   22.3280 H         1 MOL         0.0000 
     42 H9         20.3340   29.4340   23.7600 H         1 MOL         0.0000 
     43 H10        17.4090   30.0380   21.1000 H         1 MOL         0.0000 
     44 H11        17.7210   28.8680   22.4140 H         1 MOL         0.0000 
     45 H12        18.5360   28.6800   20.8370 H         1 MOL         0.0000 
     46 H13        22.4750   29.6020   18.1520 H         1 MOL         0.1500 
     47 H14        23.4800   28.5920   16.5080 H         1 MOL         0.4000 
     48 H15        27.3310   28.0010   17.2300 H         1 MOL         0.1500 
     49 H16        24.2890   27.8520   14.3670 H         1 MOL         0.2700 
     50 H17        28.7470   26.7470   13.7590 H         1 MOL         0.0000 
     51 H18        28.9750   26.3900   15.4690 H         1 MOL         0.0000 
     52 H19        29.3640   27.9970   14.8180 H         1 MOL         0.0000 
     53 H20        28.5770   27.9560   19.5510 H         1 MOL         0.1500 
     54 H21        29.6610   26.5430   17.8370 H         1 MOL         0.1500 
     55 H22        27.1810   23.2300   19.0000 H         1 MOL         0.1500 
     56 H23        26.1330   24.6540   20.7290 H         1 MOL         0.1500 
     57 H24        28.4150   23.2530   16.9210 H         1 MOL         0.3700 
     58 H25        29.5840   22.3300   15.4140 H         1 MOL         0.1000 
     59 H26        31.7870   24.3150   14.4560 H         1 MOL         0.1000 
     60 H27        31.0360   22.9720   13.4730 H         1 MOL         0.1000 
     61 H28        31.8450   21.2890   15.1280 H         1 MOL         0.1000 
     62 H29        32.5470   22.5900   16.1810 H         1 MOL         0.1000 
@<TRIPOS>BOND
     1    1    2 1    
     2    1    6 1    
     3    1    7 1    
     4    2    3 1    
     5    3    4 1    
     6    4    5 1    
     7    4    8 1    
     8    5    6 1    
     9    8    9 ar   
    10    8   13 ar   
    11    9   10 ar   
    12   10   11 ar   
    13   10   14 1    
    14   11   12 ar   
    15   12   13 ar   
    16   12   21 1    
    17   14   15 1    
    18   15   16 2    
    19   15   19 1    
    20   16   17 1    
    21   17   18 2    
    22   17   20 1    
    23   18   19 1    
    24   21   22 1    
    25   22   23 ar   
    26   22   27 ar   
    27   23   24 ar   
    28   24   25 ar   
    29   25   26 ar   
    30   25   28 1    
    31   26   27 ar   
    32   28   29 am   
    33   29   30 2    
    34   29   31 1    
    35   31   32 1    
    36   31   33 1    
    37   32   33 1    
    38    1   34 1    
    39    2   35 1    
    40    2   36 1    
    41    3   37 1    
    42    3   38 1    
    43    5   39 1    
    44    5   40 1    
    45    6   41 1    
    46    6   42 1    
    47    7   43 1    
    48    7   44 1    
    49    7   45 1    
    50    9   46 1    
    51   14   47 1    
    52   16   48 1    
    53   19   49 1    
    54   20   50 1    
    55   20   51 1    
    56   20   52 1    
    57   23   53 1    
    58   24   54 1    
    59   26   55 1    
    60   27   56 1    
    61   28   57 1    
    62   31   58 1    
    63   32   59 1    
    64   32   60 1    
    65   33   61 1    
    66   33   62 1    
@<TRIPOS>SUBSTRUCTURE
     1 MOL         1 PERM              0 ****  ****    0 ROOT 
@<TRIPOS>NORMAL
@<TRIPOS>ALT_TYPE
MMFF94_ALT_TYPE_SET 
MMFF94 31 CR3R 32 CR3R 33 CR3R 2 CR 3 CR 5 CR 6 CR 7 CR 20 CR 15 C5A \
16 C5B 17 C5B 8 CB 9 CB 10 CB 12 CB 22 CB 23 CB 24 CB \
25 CB 26 CB 27 CB 29 C=ON 35 HC 36 HC 37 HC 38 HC 39 HC \
40 HC 41 HC 42 HC 43 HC 44 HC 45 HC 46 HC 48 HC 50 HC \
51 HC 52 HC 53 HC 54 HC 55 HC 56 HC 58 HC 59 HC 60 HC \
61 HC 62 HC 49 HPYL 47 HNCC 57 HNCC 34 HNR+ 30 O=CN 11 NPYD \
13 NPYD 19 NPYL 18 N5A 1 NR+ 28 NC=O 4 NC=N 14 NC=N \
21 S 
