#	Name:			3fcq_ligand
#	Creating user name:	suminyi
#	Creation time:		Sun Sep 30 06:51:02 2018

#	Modifying user name:	suminyi
#	Modification time:	Sun Sep 30 06:51:02 2018

@<TRIPOS>MOLECULE
3fcq_ligand
   23    23     1     1     0
SMALL
MMFF94_CHARGES


@<TRIPOS>ATOM
      1 O12        37.7710   42.7720   -3.6550 O.2       1 MOL        -0.5700 
      2 C11        36.7760   42.9180   -2.9600 C.2       1 MOL         0.6590 
      3 O1         35.7540   42.0510   -2.9280 O.3       1 MOL        -0.2325 
      4 C2         35.7440   40.8320   -3.5600 C.ar      1 MOL         0.0825 
      5 C7         35.8500   39.6980   -2.7450 C.ar      1 MOL        -0.1435 
      6 C1         35.9060   39.8350   -1.2310 C.3       1 MOL         0.1435 
      7 C6         35.9080   38.4330   -3.3250 C.ar      1 MOL        -0.1500 
      8 C5         35.8340   38.2980   -4.7070 C.ar      1 MOL        -0.1500 
      9 C4         35.6930   39.4230   -5.5160 C.ar      1 MOL        -0.1500 
     10 C3         35.6440   40.7060   -4.9560 C.ar      1 MOL        -0.1790 
     11 C8         35.4780   41.8660   -5.8900 C.2       1 MOL         0.9790 
     12 O10        35.6620   43.0430   -5.6810 O.co2     1 MOL        -0.9000 
     13 O9         36.0060   41.8640   -6.9870 O.co2     1 MOL        -0.9000 
     14 C13        36.5840   44.0520   -1.9950 C.3       1 MOL         0.0610 
     15 H1         35.9890   38.8620   -0.7390 H         1 MOL         0.0000 
     16 H2         35.0010   40.3270   -0.8720 H         1 MOL         0.0000 
     17 H3         36.7620   40.4420   -0.9300 H         1 MOL         0.0000 
     18 H4         36.0190   37.5480   -2.7020 H         1 MOL         0.1500 
     19 H5         35.8840   37.3080   -5.1550 H         1 MOL         0.1500 
     20 H6         35.6220   39.2940   -6.5960 H         1 MOL         0.1500 
     21 H7         37.3850   44.7860   -2.0940 H         1 MOL         0.0000 
     22 H8         36.5810   43.6660   -0.9760 H         1 MOL         0.0000 
     23 H9         35.6220   44.5310   -2.1830 H         1 MOL         0.0000 
@<TRIPOS>BOND
     1    1    2 2    
     2    2    3 1    
     3    2   14 1    
     4    3    4 1    
     5    4    5 ar   
     6    4   10 ar   
     7    5    6 1    
     8    5    7 ar   
     9    7    8 ar   
    10    8    9 ar   
    11    9   10 ar   
    12   10   11 1    
    13   11   12 ar   
    14   11   13 ar   
    15    6   15 1    
    16    6   16 1    
    17    6   17 1    
    18    7   18 1    
    19    8   19 1    
    20    9   20 1    
    21   14   21 1    
    22   14   22 1    
    23   14   23 1    
@<TRIPOS>SUBSTRUCTURE
     1 MOL         1 PERM              0 ****  ****    0 ROOT 
@<TRIPOS>NORMAL
@<TRIPOS>ALT_TYPE
MMFF94_ALT_TYPE_SET 
MMFF94 6 CR 14 CR 4 CB 5 CB 7 CB 8 CB 9 CB 10 CB 11 CO2M 2 COO 15 HC \
16 HC 17 HC 18 HC 19 HC 20 HC 21 HC 22 HC 23 HC 12 O2CM \
13 O2CM 1 O=CO 3 OC=O 
