#	Name:			3u8n_ligand
#	Creating user name:	suminyi
#	Creation time:		Sun Sep 30 06:51:11 2018

#	Modifying user name:	suminyi
#	Modification time:	Sun Sep 30 06:51:11 2018

@<TRIPOS>MOLECULE
3u8n_ligand
   36    37     1     1     0
SMALL
MMFF94_CHARGES


@<TRIPOS>ATOM
      1 C1         51.3190   22.2220  102.2520 C.3       1 MOL         0.3691 
      2 C2         50.4650   22.4810  101.0010 C.3       1 MOL         0.5030 
      3 N1         51.2670   22.8340   99.7650 N.4       1 MOL        -0.9060 
      4 C3         51.4550   24.3210   99.6290 C.3       1 MOL         0.5030 
      5 C4         52.4920   24.9060  100.5930 C.3       1 MOL         0.0000 
      6 C5         52.2050   24.5760  102.0780 C.3       1 MOL         0.3691 
      7 N2         52.4570   23.1530  102.3870 N.pl3     1 MOL        -0.8382 
      8 C6         56.2110   21.6350  103.3120 C.ar      1 MOL         0.4210 
      9 N3         55.1230   20.8980  103.6250 N.ar      1 MOL        -0.6200 
     10 C7         53.9160   21.4180  103.3130 C.ar      1 MOL         0.1600 
     11 C8         53.7180   22.6660  102.7030 C.ar      1 MOL         0.1000 
     12 C9         54.8550   23.4170  102.4320 C.ar      1 MOL        -0.1500 
     13 C10        56.1260   22.9020  102.7120 C.ar      1 MOL         0.0825 
     14 Br1        57.9130   20.9280  103.7240 Br        1 MOL        -0.1110 
     15 O1         57.2650   23.6430  102.4040 O.3       1 MOL        -0.3625 
     16 C11        57.1010   24.9950  101.9160 C.3       1 MOL         0.2800 
     17 C12        58.4240   25.7160  101.6950 C.3       1 MOL         0.0000 
     18 H1         51.7100   21.2190  102.1180 H         1 MOL         0.0000 
     19 H2         50.6920   22.2340  103.1500 H         1 MOL         0.0000 
     20 H3         49.7630   23.2970  101.1890 H         1 MOL         0.0000 
     21 H4         49.8900   21.5780  100.7780 H         1 MOL         0.0000 
     22 H5         50.7780   22.4870   98.9130 H         1 MOL         0.4500 
     23 H6         52.2100   22.3580   99.7790 H         1 MOL         0.4500 
     24 H7         50.4810   24.7940   99.7800 H         1 MOL         0.0000 
     25 H8         51.7800   24.5170   98.6000 H         1 MOL         0.0000 
     26 H9         52.5130   25.9910  100.4660 H         1 MOL         0.0000 
     27 H10        53.4730   24.5360  100.2950 H         1 MOL         0.0000 
     28 H11        51.1750   24.8490  102.3260 H         1 MOL         0.0000 
     29 H12        52.8550   25.1870  102.7030 H         1 MOL         0.0000 
     30 H13        53.0730   20.8300  103.6500 H         1 MOL         0.1500 
     31 H14        54.7470   24.3990  102.0020 H         1 MOL         0.1500 
     32 H15        56.5300   25.5410  102.6630 H         1 MOL         0.0000 
     33 H16        56.5470   24.9500  100.9790 H         1 MOL         0.0000 
     34 H17        58.2420   26.7350  101.3470 H         1 MOL         0.0000 
     35 H18        59.0080   25.1980  100.9350 H         1 MOL         0.0000 
     36 H19        58.9670   25.7800  102.6390 H         1 MOL         0.0000 
@<TRIPOS>BOND
     1    1    2 1    
     2    7    1 1    
     3    2    3 1    
     4    4    3 1    
     5    5    4 1    
     6    6    5 1    
     7    7    6 1    
     8   11    7 1    
     9    9    8 ar   
    10    8   13 ar   
    11    8   14 1    
    12   10    9 ar   
    13   10   11 ar   
    14   11   12 ar   
    15   12   13 ar   
    16   13   15 1    
    17   15   16 1    
    18   16   17 1    
    19    1   18 1    
    20    1   19 1    
    21    2   20 1    
    22    2   21 1    
    23    3   22 1    
    24    3   23 1    
    25    4   24 1    
    26    4   25 1    
    27    5   26 1    
    28    5   27 1    
    29    6   28 1    
    30    6   29 1    
    31   10   30 1    
    32   12   31 1    
    33   16   32 1    
    34   16   33 1    
    35   17   34 1    
    36   17   35 1    
    37   17   36 1    
@<TRIPOS>SUBSTRUCTURE
     1 MOL         1 PERM              0 ****  ****    0 ROOT 
@<TRIPOS>NORMAL
@<TRIPOS>ALT_TYPE
MMFF94_ALT_TYPE_SET 
MMFF94 1 CR 2 CR 4 CR 5 CR 6 CR 16 CR 17 CR 8 CB 10 CB 11 CB 12 CB 13 CB \
18 HC 19 HC 20 HC 21 HC 24 HC 25 HC 26 HC 27 HC 28 HC \
29 HC 30 HC 31 HC 32 HC 33 HC 34 HC 35 HC 36 HC 22 HNR+ \
23 HNR+ 15 OC=C 9 NPYD 3 NR+ 7 NC=C 14 BR 
