#	Name:			5aba_ligand
#	Creating user name:	suminyi
#	Creation time:		Sun Sep 30 06:51:11 2018

#	Modifying user name:	suminyi
#	Modification time:	Sun Sep 30 06:51:11 2018

@<TRIPOS>MOLECULE
5aba_ligand
   49    51     1     1     0
SMALL
MMFF94_CHARGES


@<TRIPOS>ATOM
      1 N          91.9780  102.1890  -43.9840 N.4       1 MOL        -0.9590 
      2 C          92.6820  102.9320  -45.1020 C.3       1 MOL         0.5030 
      3 C01        90.9240   93.1880  -44.9630 C.ar      1 MOL         0.1770 
      4 C1         90.4340   95.5160  -44.4680 C.ar      1 MOL        -0.1435 
      5 N1         90.4250   98.0510  -44.3350 N.4       1 MOL        -0.9590 
      6 O1         90.8220   96.3180  -42.2370 O.3       1 MOL        -0.5325 
      7 C02        91.3780   92.9970  -43.6640 C.ar      1 MOL        -0.1500 
      8 C2         89.7890   96.8160  -44.9220 C.3       1 MOL         0.6465 
      9 C03        91.7250   98.3980  -45.0330 C.3       1 MOL         0.5030 
     10 C3         90.4270   94.4320  -45.3510 C.ar      1 MOL        -0.1500 
     11 C04        92.9450  102.0680  -42.8170 C.3       1 MOL         0.5030 
     12 C4         91.3730   94.0650  -42.7740 C.ar      1 MOL         0.1110 
     13 C05        93.3840  103.4510  -42.2980 C.3       1 MOL         0.0000 
     14 C06        93.9990  104.3100  -43.4260 C.3       1 MOL         0.2800 
     15 O          94.1240  105.6480  -42.9550 O.3       1 MOL        -0.6800 
     16 C07        93.0910  104.3490  -44.6710 C.3       1 MOL         0.0000 
     17 C7         90.9070   95.3220  -43.1630 C.ar      1 MOL         0.0825 
     18 C10        91.3990  100.8700  -44.4670 C.3       1 MOL         0.5030 
     19 C15        90.1040  100.4910  -43.7110 C.3       1 MOL         0.0000 
     20 C16        89.4660   99.2260  -44.3190 C.3       1 MOL         0.5030 
     21 Cl         90.9110   91.8550  -46.0660 Cl        1 MOL        -0.1770 
     22 Br         91.9710   93.7450  -41.0040 Br        1 MOL        -0.1110 
     23 C8         92.3760   99.6670  -44.4460 C.3       1 MOL         0.0000 
     24 H1         91.1950  102.7930  -43.6590 H         1 MOL         0.4500 
     25 H2         92.0090  102.9830  -45.9630 H         1 MOL         0.0000 
     26 H3         93.5710  102.3580  -45.3840 H         1 MOL         0.0000 
     27 H4         90.6330   97.7690  -43.3390 H         1 MOL         0.4500 
     28 H5         90.8780   95.9040  -41.3460 H         1 MOL         0.4500 
     29 H6         91.6930   92.0080  -43.3340 H         1 MOL         0.1500 
     30 H7         88.7370   96.8050  -44.6160 H         1 MOL         0.0000 
     31 H8         89.8340   96.9020  -46.0120 H         1 MOL         0.0000 
     32 H9         91.5110   98.5340  -46.0990 H         1 MOL         0.0000 
     33 H10        92.4030   97.5420  -44.9320 H         1 MOL         0.0000 
     34 H11        89.9840   94.5360  -46.3370 H         1 MOL         0.1500 
     35 H12        93.8210  101.5050  -43.1600 H         1 MOL         0.0000 
     36 H13        92.4570  101.4980  -42.0190 H         1 MOL         0.0000 
     37 H14        94.1210  103.3250  -41.5010 H         1 MOL         0.0000 
     38 H15        92.5270  103.9710  -41.8620 H         1 MOL         0.0000 
     39 H16        94.9820  103.9060  -43.6980 H         1 MOL         0.0000 
     40 H17        95.0550  105.9440  -43.0350 H         1 MOL         0.4000 
     41 H18        92.1990  104.9440  -44.4550 H         1 MOL         0.0000 
     42 H19        93.6190  104.8460  -45.4880 H         1 MOL         0.0000 
     43 H20        91.1190  101.0490  -45.5100 H         1 MOL         0.0000 
     44 H21        89.3810  101.3100  -43.7680 H         1 MOL         0.0000 
     45 H22        90.3150  100.3240  -42.6500 H         1 MOL         0.0000 
     46 H23        88.5780   98.9410  -43.7400 H         1 MOL         0.0000 
     47 H24        89.1530   99.4200  -45.3500 H         1 MOL         0.0000 
     48 H25        93.2760   99.9110  -45.0100 H         1 MOL         0.0000 
     49 H26        92.6910   99.4530  -43.4210 H         1 MOL         0.0000 
@<TRIPOS>BOND
     1    1    2 1    
     2    1   11 1    
     3   18    1 1    
     4    2   16 1    
     5    3    7 ar   
     6   10    3 ar   
     7    3   21 1    
     8    8    4 1    
     9    4   10 ar   
    10    4   17 ar   
    11    5    8 1    
    12    9    5 1    
    13    5   20 1    
    14   17    6 1    
    15   12    7 ar   
    16   23    9 1    
    17   11   13 1    
    18   17   12 ar   
    19   12   22 1    
    20   13   14 1    
    21   14   15 1    
    22   16   14 1    
    23   18   19 1    
    24   18   23 1    
    25   19   20 1    
    26    1   24 1    
    27    2   25 1    
    28    2   26 1    
    29    5   27 1    
    30    6   28 1    
    31    7   29 1    
    32    8   30 1    
    33    8   31 1    
    34    9   32 1    
    35    9   33 1    
    36   10   34 1    
    37   11   35 1    
    38   11   36 1    
    39   13   37 1    
    40   13   38 1    
    41   14   39 1    
    42   15   40 1    
    43   16   41 1    
    44   16   42 1    
    45   18   43 1    
    46   19   44 1    
    47   19   45 1    
    48   20   46 1    
    49   20   47 1    
    50   23   48 1    
    51   23   49 1    
@<TRIPOS>SUBSTRUCTURE
     1 MOL         1 PERM              0 ****  ****    0 ROOT 
@<TRIPOS>NORMAL
@<TRIPOS>ALT_TYPE
MMFF94_ALT_TYPE_SET 
MMFF94 2 CR 8 CR 9 CR 11 CR 13 CR 14 CR 16 CR 18 CR 19 CR 20 CR 23 CR \
3 CB 4 CB 7 CB 10 CB 12 CB 17 CB 25 HC 26 HC 29 HC 30 HC \
31 HC 32 HC 33 HC 34 HC 35 HC 36 HC 37 HC 38 HC 39 HC \
41 HC 42 HC 43 HC 44 HC 45 HC 46 HC 47 HC 48 HC 49 HC \
24 HNR+ 27 HNR+ 28 HOCC 40 HOR 6 OC=C 15 OR 1 NR+ 5 NR+ \
21 CL 22 BR 
