#	Name:			3uri_ligand
#	Creating user name:	suminyi
#	Creation time:		Sun Sep 30 06:50:53 2018

#	Modifying user name:	suminyi
#	Modification time:	Sun Sep 30 06:50:53 2018

@<TRIPOS>MOLECULE
3uri_ligand
  130   133     1     1     0
SMALL
MMFF94_CHARGES


@<TRIPOS>ATOM
      1 N           5.5240   22.7670   24.4200 N.4       1 MOL        -0.9060 
      2 CA          5.1780   24.2070   24.1420 C.3       1 MOL         0.5640 
      3 C           4.1710   24.4040   23.0140 C.2       1 MOL         0.5690 
      4 O           3.2560   23.6180   22.8920 O.2       1 MOL        -0.5700 
      5 CB          6.5740   24.8420   23.9840 C.3       1 MOL         0.0000 
      6 CG          7.3830   24.1630   25.1140 C.3       1 MOL         0.0000 
      7 CD          6.6270   22.8580   25.4350 C.3       1 MOL         0.5030 
      8 N1          4.2900   25.5140   22.2690 N.am      1 MOL        -0.7301 
      9 C14         3.5300   25.8230   21.0370 C.3       1 MOL         0.3611 
     10 C19         3.9110   27.2040   20.5360 C.2       1 MOL         0.5690 
     11 O1          4.0290   28.1240   21.3240 O.2       1 MOL        -0.5700 
     12 C25         1.9980   25.8110   21.2750 C.3       1 MOL         0.1800 
     13 C30         1.2520   24.8440   20.4040 C.2       1 MOL        -0.3316 
     14 ND1        -0.0450   24.9800   20.0160 N.pl3     1 MOL         0.0332 
     15 CD2         1.7230   23.6530   19.9100 C.2       1 MOL         0.0772 
     16 CE1        -0.3380   23.8910   19.2550 C.2       1 MOL         0.0365 
     17 NE2         0.7150   23.0780   19.1640 N.2       1 MOL        -0.5653 
     18 N3          4.1140   27.3750   19.2220 N.am      1 MOL        -0.7301 
     19 C15         4.6310   28.6280   18.6320 C.3       1 MOL         0.3611 
     20 C20         3.8160   29.0120   17.3960 C.2       1 MOL         0.5690 
     21 O2          3.1180   28.2270   16.7770 O.2       1 MOL        -0.5700 
     22 C26         6.1650   28.5360   18.3710 C.3       1 MOL         0.0000 
     23 C31         6.9960   28.3540   19.6860 C.3       1 MOL         0.0000 
     24 CD1         7.2000   26.8810   20.0930 C.3       1 MOL         0.0000 
     25 C33         8.4010   28.9710   19.5670 C.3       1 MOL         0.0000 
     26 N4          3.7480   30.3210   17.0920 N.am      1 MOL        -0.7301 
     27 C16         2.8560   30.8710   16.0350 C.3       1 MOL         0.3611 
     28 C21         3.3810   32.1060   15.3200 C.2       1 MOL         0.5690 
     29 O3          2.6650   33.0140   14.9400 O.2       1 MOL        -0.5700 
     30 C27         1.4340   31.1300   16.5700 C.3       1 MOL         0.2800 
     31 OG          0.8440   29.8750   16.9200 O.3       1 MOL        -0.6800 
     32 N5          4.7070   32.1720   15.1470 N.am      1 MOL        -0.7301 
     33 C1          5.4370   33.3340   14.6360 C.3       1 MOL         0.3001 
     34 C2          6.8950   33.3220   15.1300 C.3       1 MOL         0.1435 
     35 C3          7.1310   32.9950   16.5990 C.ar      1 MOL        -0.1435 
     36 C4          8.3130   32.3380   16.9430 C.ar      1 MOL        -0.1500 
     37 C5          6.2400   33.3700   17.6090 C.ar      1 MOL        -0.1500 
     38 C6          8.6540   32.1540   18.2760 C.ar      1 MOL        -0.1500 
     39 C7          6.5470   33.1150   18.9440 C.ar      1 MOL        -0.1500 
     40 C8          7.7730   32.5470   19.2820 C.ar      1 MOL        -0.1500 
     41 C9          5.4160   33.3630   13.0910 C.3       1 MOL         0.5030 
     42 N2          4.0180   33.4100   12.5290 N.4       1 MOL        -0.9060 
     43 C10         3.6560   34.7380   11.8820 C.3       1 MOL         0.5640 
     44 C11         2.3890   34.6480   10.9920 C.3       1 MOL         0.0000 
     45 C12         1.1450   34.0490   11.6900 C.3       1 MOL         0.2300 
     46 SD          0.0590   35.3410   12.3760 S.3       1 MOL        -0.4600 
     47 C13        -1.4140   34.4320   12.9430 C.3       1 MOL         0.2300 
     48 C22         3.5340   35.9460   12.8000 C.2       1 MOL         0.5690 
     49 O4          3.1190   35.8750   13.9400 O.2       1 MOL        -0.5700 
     50 N6          3.9010   37.1290   12.2750 N.am      1 MOL        -0.7301 
     51 C17         3.2980   38.3950   12.7490 C.3       1 MOL         0.3611 
     52 C23         1.8830   38.5160   12.1880 C.2       1 MOL         0.5690 
     53 O5          1.6690   38.3050   11.0150 O.2       1 MOL        -0.5700 
     54 C28         4.1710   39.6010   12.3430 C.3       1 MOL         0.0000 
     55 N7          0.8940   38.8120   13.0510 N.am      1 MOL        -0.7301 
     56 C18        -0.5260   39.0280   12.6530 C.3       1 MOL         0.1941 
     57 C24        -0.8200   40.4940   12.3480 C.2       1 MOL         0.9060 
     58 O6         -1.5330   40.7430   11.3910 O.co2     1 MOL        -0.9000 
     59 C29        -1.5050   38.4870   13.7360 C.3       1 MOL         0.1800 
     60 C32        -2.9710   38.4960   13.3480 C.2       1 MOL        -0.3316 
     61 N8         -3.5710   39.2370   12.3700 N.pl3     1 MOL         0.0332 
     62 C34        -3.9620   37.8210   14.0090 C.2       1 MOL         0.0772 
     63 C35        -4.9130   38.9990   12.4520 C.2       1 MOL         0.0365 
     64 N9         -5.1860   38.1520   13.4540 N.2       1 MOL        -0.5653 
     65 OXT        -0.4630   41.3210   13.1650 O.co2     1 MOL        -0.9000 
     66 H1          5.9190   22.3810   23.4930 H         1 MOL         0.4500 
     67 H2          4.7000   22.1760   24.6230 H         1 MOL         0.4500 
     68 H3          4.6970   24.6170   25.0340 H         1 MOL         0.0000 
     69 H4          6.5790   25.9320   24.0730 H         1 MOL         0.0000 
     70 H5          7.0120   24.5640   23.0180 H         1 MOL         0.0000 
     71 H6          7.4180   24.8040   26.0000 H         1 MOL         0.0000 
     72 H7          8.4080   23.9540   24.7920 H         1 MOL         0.0000 
     73 H8          7.2660   21.9730   25.3550 H         1 MOL         0.0000 
     74 H9          6.1750   22.9190   26.4320 H         1 MOL         0.0000 
     75 H10         5.0220   26.1660   22.5030 H         1 MOL         0.3700 
     76 H11         3.8230   25.1120   20.2580 H         1 MOL         0.0000 
     77 H12         1.5940   26.8140   21.1070 H         1 MOL         0.0000 
     78 H13         1.7760   25.5940   22.3210 H         1 MOL         0.0000 
     79 H14        -0.6750   25.7240   20.2620 H         1 MOL         0.2700 
     80 H15         2.6900   23.1680   20.0160 H         1 MOL         0.1500 
     81 H16        -1.3030   23.7390   18.8000 H         1 MOL         0.1500 
     82 H17         4.0460   26.5950   18.5790 H         1 MOL         0.3700 
     83 H18         4.4660   29.4520   19.3340 H         1 MOL         0.0000 
     84 H19         6.4810   29.4600   17.8780 H         1 MOL         0.0000 
     85 H20         6.3850   27.7260   17.6680 H         1 MOL         0.0000 
     86 H21         6.4860   28.8730   20.5020 H         1 MOL         0.0000 
     87 H22         7.6410   26.8190   21.0910 H         1 MOL         0.0000 
     88 H23         7.8810   26.3870   19.4030 H         1 MOL         0.0000 
     89 H24         6.2780   26.3120   20.0980 H         1 MOL         0.0000 
     90 H25         8.3250   30.0470   19.6110 H         1 MOL         0.0000 
     91 H26         8.8920   28.6880   18.6340 H         1 MOL         0.0000 
     92 H27         9.0350   28.6660   20.4020 H         1 MOL         0.0000 
     93 H28         4.2520   30.9740   17.6830 H         1 MOL         0.3700 
     94 H29         2.7890   30.1300   15.2400 H         1 MOL         0.0000 
     95 H30         0.8170   31.6100   15.8030 H         1 MOL         0.0000 
     96 H31         1.4850   31.7890   17.4410 H         1 MOL         0.0000 
     97 H32         1.5910   29.2120   16.9130 H         1 MOL         0.4000 
     98 H33         5.2540   31.3300   15.3320 H         1 MOL         0.3700 
     99 H34         4.9610   34.2440   15.0100 H         1 MOL         0.0000 
    100 H35         7.3180   34.3100   14.9500 H         1 MOL         0.0000 
    101 H36         7.4650   32.6160   14.5210 H         1 MOL         0.0000 
    102 H37         8.9950   31.9720   16.1710 H         1 MOL         0.1500 
    103 H38         5.2870   33.8300   17.3650 H         1 MOL         0.1500 
    104 H39         9.5890   31.6480   18.5160 H         1 MOL         0.1500 
    105 H40         5.8160   33.3390   19.7160 H         1 MOL         0.1500 
    106 H41         8.0250   32.3550   20.3250 H         1 MOL         0.1500 
    107 H42         5.8940   32.4600   12.6960 H         1 MOL         0.0000 
    108 H43         5.9710   34.2230   12.7080 H         1 MOL         0.0000 
    109 H44         3.3590   33.1950   13.3150 H         1 MOL         0.4500 
    110 H45         3.9130   32.6210   11.8240 H         1 MOL         0.4500 
    111 H46         4.5050   34.9610   11.2390 H         1 MOL         0.0000 
    112 H47         2.6260   34.0520   10.1100 H         1 MOL         0.0000 
    113 H48         2.1260   35.6370   10.6150 H         1 MOL         0.0000 
    114 H49         1.4320   33.3570   12.4850 H         1 MOL         0.0000 
    115 H50         0.5720   33.4900   10.9470 H         1 MOL         0.0000 
    116 H51        -2.1890   35.1490   13.2270 H         1 MOL         0.0000 
    117 H52        -1.1530   33.8170   13.8070 H         1 MOL         0.0000 
    118 H53        -1.7910   33.8010   12.1350 H         1 MOL         0.0000 
    119 H54         4.1910   37.1110   11.3030 H         1 MOL         0.3700 
    120 H55         3.2050   38.3830   13.8370 H         1 MOL         0.0000 
    121 H56         3.7280   40.5320   12.7080 H         1 MOL         0.0000 
    122 H57         4.2610   39.6680   11.2550 H         1 MOL         0.0000 
    123 H58         5.1720   39.5130   12.7720 H         1 MOL         0.0000 
    124 H59         1.1470   39.1260   13.9720 H         1 MOL         0.3700 
    125 H60        -0.7140   38.4990   11.7150 H         1 MOL         0.0000 
    126 H61        -1.3740   39.0810   14.6440 H         1 MOL         0.0000 
    127 H62        -1.2120   37.4680   13.9910 H         1 MOL         0.0000 
    128 H63        -3.0890   39.8940   11.7450 H         1 MOL         0.2700 
    129 H64        -3.9010   37.1440   14.8530 H         1 MOL         0.1500 
    130 H65        -5.6350   39.4740   11.8050 H         1 MOL         0.1500 
@<TRIPOS>BOND
     1    1    2 1    
     2    1    7 1    
     3    2    3 1    
     4    2    5 1    
     5    3    4 2    
     6    3    8 am   
     7    5    6 1    
     8    6    7 1    
     9    8    9 1    
    10    9   10 1    
    11    9   12 1    
    12   10   11 2    
    13   10   18 am   
    14   12   13 1    
    15   13   14 1    
    16   13   15 2    
    17   14   16 1    
    18   15   17 1    
    19   16   17 2    
    20   18   19 1    
    21   19   20 1    
    22   19   22 1    
    23   20   21 2    
    24   20   26 am   
    25   22   23 1    
    26   23   24 1    
    27   23   25 1    
    28   26   27 1    
    29   27   28 1    
    30   27   30 1    
    31   28   29 2    
    32   28   32 am   
    33   30   31 1    
    34   32   33 1    
    35   33   34 1    
    36   33   41 1    
    37   34   35 1    
    38   35   36 ar   
    39   35   37 ar   
    40   36   38 ar   
    41   37   39 ar   
    42   38   40 ar   
    43   39   40 ar   
    44   41   42 1    
    45   42   43 1    
    46   43   44 1    
    47   43   48 1    
    48   44   45 1    
    49   45   46 1    
    50   46   47 1    
    51   48   49 2    
    52   48   50 am   
    53   50   51 1    
    54   51   52 1    
    55   51   54 1    
    56   52   53 2    
    57   52   55 am   
    58   55   56 1    
    59   56   57 1    
    60   56   59 1    
    61   57   58 ar   
    62   57   65 ar   
    63   59   60 1    
    64   60   61 1    
    65   60   62 2    
    66   61   63 1    
    67   62   64 1    
    68   63   64 2    
    69    1   66 1    
    70    1   67 1    
    71    2   68 1    
    72    5   69 1    
    73    5   70 1    
    74    6   71 1    
    75    6   72 1    
    76    7   73 1    
    77    7   74 1    
    78    8   75 1    
    79    9   76 1    
    80   12   77 1    
    81   12   78 1    
    82   14   79 1    
    83   15   80 1    
    84   16   81 1    
    85   18   82 1    
    86   19   83 1    
    87   22   84 1    
    88   22   85 1    
    89   23   86 1    
    90   24   87 1    
    91   24   88 1    
    92   24   89 1    
    93   25   90 1    
    94   25   91 1    
    95   25   92 1    
    96   26   93 1    
    97   27   94 1    
    98   30   95 1    
    99   30   96 1    
   100   31   97 1    
   101   32   98 1    
   102   33   99 1    
   103   34  100 1    
   104   34  101 1    
   105   36  102 1    
   106   37  103 1    
   107   38  104 1    
   108   39  105 1    
   109   40  106 1    
   110   41  107 1    
   111   41  108 1    
   112   42  109 1    
   113   42  110 1    
   114   43  111 1    
   115   44  112 1    
   116   44  113 1    
   117   45  114 1    
   118   45  115 1    
   119   47  116 1    
   120   47  117 1    
   121   47  118 1    
   122   50  119 1    
   123   51  120 1    
   124   54  121 1    
   125   54  122 1    
   126   54  123 1    
   127   55  124 1    
   128   56  125 1    
   129   59  126 1    
   130   59  127 1    
   131   61  128 1    
   132   62  129 1    
   133   63  130 1    
@<TRIPOS>SUBSTRUCTURE
     1 MOL         1 PERM              0 ****  ****    0 ROOT 
@<TRIPOS>NORMAL
@<TRIPOS>ALT_TYPE
MMFF94_ALT_TYPE_SET 
MMFF94 2 CR 5 CR 6 CR 7 CR 9 CR 12 CR 19 CR 22 CR 23 CR 24 CR 25 CR \
27 CR 30 CR 33 CR 34 CR 41 CR 43 CR 44 CR 45 CR 47 CR \
51 CR 54 CR 56 CR 59 CR 13 C5A 16 C5A 60 C5A 63 C5A 15 C5B \
62 C5B 35 CB 36 CB 37 CB 38 CB 39 CB 40 CB 57 CO2M 3 C=ON \
10 C=ON 20 C=ON 28 C=ON 48 C=ON 52 C=ON 68 HC 69 HC \
70 HC 71 HC 72 HC 73 HC 74 HC 76 HC 77 HC 78 HC 80 HC \
81 HC 83 HC 84 HC 85 HC 86 HC 87 HC 88 HC 89 HC 90 HC \
91 HC 92 HC 94 HC 95 HC 96 HC 99 HC 100 HC 101 HC 102 HC \
103 HC 104 HC 105 HC 106 HC 107 HC 108 HC 111 HC 112 HC \
113 HC 114 HC 115 HC 116 HC 117 HC 118 HC 120 HC 121 HC \
122 HC 123 HC 125 HC 126 HC 127 HC 129 HC 130 HC 79 HPYL \
128 HPYL 75 HNCO 82 HNCO 93 HNCO 98 HNCO 119 HNCO 124 HNCO \
66 HNR+ 67 HNR+ 109 HNR+ 110 HNR+ 97 HOR 58 O2CM 65 O2CM \
4 O=CN 11 O=CN 21 O=CN 29 O=CN 49 O=CN 53 O=CN 31 OR \
14 NPYL 61 NPYL 17 N5B 64 N5B 1 NR+ 42 NR+ 8 NC=O 18 NC=O \
26 NC=O 32 NC=O 50 NC=O 55 NC=O 46 S 
