#	Name:			3jya_ligand
#	Creating user name:	suminyi
#	Creation time:		Sun Sep 30 06:51:04 2018

#	Modifying user name:	suminyi
#	Modification time:	Sun Sep 30 06:51:04 2018

@<TRIPOS>MOLECULE
3jya_ligand
   20    22     1     1     0
SMALL
MMFF94_CHARGES


@<TRIPOS>ATOM
      1 C1          9.3980   81.1990   -1.2340 C.2       1 MOL         0.7150 
      2 N1         10.2150   81.0090   -0.2040 N.am      1 MOL        -0.4900 
      3 O1          9.8060   80.9920   -2.3580 O.2       1 MOL        -0.5700 
      4 S1          6.7240   81.8580   -1.9420 S.3       1 MOL        -0.0800 
      5 Cl1         3.4630   82.3930   -2.0890 Cl        1 MOL        -0.1770 
      6 C2          9.8820   81.2650    1.1030 C.2       1 MOL         0.4500 
      7 N2          8.7010   81.7730    1.4780 N.2       1 MOL        -0.5750 
      8 Cl2         6.4980   82.8100    3.3680 Cl        1 MOL        -0.1770 
      9 C3          7.7470   81.9320    0.4820 C.2       1 MOL         0.1250 
     10 C4          8.0730   81.6540   -0.8300 C.2       1 MOL        -0.0450 
     11 C5          5.7130   82.3000   -0.5550 C.ar      1 MOL         0.0400 
     12 C6          4.3400   82.5510   -0.6110 C.ar      1 MOL         0.1770 
     13 C7          3.6510   82.8580    0.5630 C.ar      1 MOL        -0.1500 
     14 C8          4.3390   82.9300    1.7770 C.ar      1 MOL        -0.1500 
     15 C9          5.7100   82.6740    1.8310 C.ar      1 MOL         0.1770 
     16 C10         6.3820   82.3300    0.6480 C.ar      1 MOL         0.0000 
     17 H1         11.0900   80.5660   -0.3900 H         1 MOL         0.3700 
     18 H2         10.6630   81.0240    1.8090 H         1 MOL         0.0600 
     19 H3          2.5740   83.0220    0.5390 H         1 MOL         0.1500 
     20 H4          3.8010   83.1640    2.6960 H         1 MOL         0.1500 
@<TRIPOS>BOND
     1    1    2 am   
     2    1    3 2    
     3   10    1 1    
     4    6    2 1    
     5    4   10 1    
     6   11    4 1    
     7   12    5 1    
     8    7    6 2    
     9    9    7 1    
    10   15    8 1    
    11    9   10 2    
    12   16    9 1    
    13   12   11 ar   
    14   11   16 ar   
    15   13   12 ar   
    16   14   13 ar   
    17   14   15 ar   
    18   15   16 ar   
    19    2   17 1    
    20    6   18 1    
    21   13   19 1    
    22   14   20 1    
@<TRIPOS>SUBSTRUCTURE
     1 MOL         1 PERM              0 ****  ****    0 ROOT 
@<TRIPOS>NORMAL
@<TRIPOS>ALT_TYPE
MMFF94_ALT_TYPE_SET 
MMFF94 10 C5A 11 C5A 9 C5B 16 C5B 12 CB 13 CB 14 CB 15 CB 1 C=ON 6 C=N \
18 HC 19 HC 20 HC 17 HNCN 3 O=CN 7 N=C 2 NC=O 4 STHI \
5 CL 8 CL
