#	Name:			3bv9_ligand
#	Creating user name:	suminyi
#	Creation time:		Sun Sep 30 06:51:10 2018

#	Modifying user name:	suminyi
#	Modification time:	Sun Sep 30 06:51:10 2018

@<TRIPOS>MOLECULE
3bv9_ligand
   98   101     1     1     0
SMALL
MMFF94_CHARGES


@<TRIPOS>ATOM
      1 N          11.7030   16.4060   12.2220 N.4       1 MOL        -0.8530 
      2 CA         12.1420   17.8020   12.6910 C.3       1 MOL         0.5640 
      3 CB         11.9880   18.8880   11.5910 C.3       1 MOL         0.1382 
      4 CG         10.6130   19.5280   11.4240 C.2       1 MOL        -0.2882 
      5 CD          9.4300   18.9440   11.2430 C.2       1 MOL         0.1530 
      6 NE          9.1750   17.6030   11.2440 N.pl3     1 MOL        -0.8197 
      7 CZ          8.2370   16.9430   10.5520 C.cat     1 MOL         1.2000 
      8 NH1         7.2940   17.5770    9.8740 N.pl3     1 MOL        -0.9667 
      9 NH2         8.0530   15.6620   10.8210 N.pl3     1 MOL        -0.9667 
     10 C          13.6180   17.7140   13.0900 C.2       1 MOL         0.5690 
     11 O          14.2820   16.8900   12.4860 O.2       1 MOL        -0.5700 
     12 N1         14.1480   18.4810   14.0720 N.am      1 MOL        -0.6602 
     13 C2         15.4960   18.1860   14.6240 C.3       1 MOL         0.3611 
     14 C19        15.7190   16.7160   15.0200 C.2       1 MOL         0.5690 
     15 O1         14.8930   16.0810   15.6550 O.2       1 MOL        -0.5700 
     16 C12        15.6790   19.1530   15.8070 C.3       1 MOL         0.0000 
     17 C15        14.7890   20.3390   15.3980 C.3       1 MOL         0.0000 
     18 C17        13.5560   19.6540   14.7480 C.3       1 MOL         0.3001 
     19 C4         14.4860   21.3380   16.5430 C.3       1 MOL         0.0000 
     20 C5         13.4510   20.8090   17.5500 C.3       1 MOL         0.0000 
     21 C6         12.1780   20.3550   16.8130 C.3       1 MOL         0.0000 
     22 C7         12.5020   19.2330   15.8060 C.3       1 MOL         0.0000 
     23 N2         16.8460   16.0900   14.6040 N.am      1 MOL        -0.6602 
     24 C10        17.1050   14.6700   14.8950 C.3       1 MOL         0.3611 
     25 C20        17.1640   14.3750   16.3910 C.2       1 MOL         0.5690 
     26 O2         17.8080   15.0360   17.1770 O.2       1 MOL        -0.5700 
     27 C13        18.4200   14.3180   14.1690 C.3       1 MOL         0.0000 
     28 C16        19.1230   15.6660   13.9620 C.3       1 MOL         0.0000 
     29 C18        17.9850   16.6920   13.9050 C.3       1 MOL         0.3001 
     30 N4         16.4530   13.3050   16.7930 N.am      1 MOL        -0.7301 
     31 C11        16.3440   12.8880   18.2120 C.3       1 MOL         0.3611 
     32 C14        16.1420   11.3600   18.2860 C.3       1 MOL         0.0000 
     33 C21        15.2730   13.6140   19.0350 C.2       1 MOL         0.5690 
     34 O3         15.0430   13.3320   20.1930 O.2       1 MOL        -0.5700 
     35 C1         13.4020   15.2310   19.0800 C.3       1 MOL         0.3611 
     36 C3         13.0030   16.4930   18.2990 C.3       1 MOL         0.1435 
     37 C22        12.0290   17.3850   19.0520 C.ar      1 MOL        -0.1435 
     38 C23        10.6630   17.3240   18.7760 C.ar      1 MOL        -0.1500 
     39 C24        12.4990   18.2990   19.9970 C.ar      1 MOL        -0.1500 
     40 C25         9.7830   18.1950   19.4150 C.ar      1 MOL        -0.1500 
     41 C8         11.6110   19.1580   20.6440 C.ar      1 MOL        -0.1500 
     42 C9         10.2500   19.1170   20.3490 C.ar      1 MOL        -0.1435 
     43 C32        12.1930   14.3060   19.2420 C.2       1 MOL         0.5690 
     44 C33         9.2880   20.0710   21.0350 C.3       1 MOL         0.1435 
     45 O5         11.6880   13.6650   18.3440 O.2       1 MOL        -0.5700 
     46 N3         14.5550   14.5740   18.4260 N.am      1 MOL        -0.7301 
     47 N5         11.6370   14.2230   20.4450 N.am      1 MOL        -0.8000 
     48 H1         11.0840   16.3840   11.3970 H         1 MOL         0.4500 
     49 H2         11.3510   15.7910   12.9810 H         1 MOL         0.4500 
     50 H3         12.5960   15.9470   11.9120 H         1 MOL         0.4500 
     51 H4         11.5800   18.0800   13.5840 H         1 MOL         0.0000 
     52 H5         12.3430   18.5140   10.6290 H         1 MOL         0.0000 
     53 H6         12.6750   19.7080   11.8270 H         1 MOL         0.0000 
     54 H7         10.6450   20.6220   11.4130 H         1 MOL         0.1500 
     55 H8          8.5460   19.5720   11.1170 H         1 MOL         0.1500 
     56 H9          9.3710   17.2170   12.1560 H         1 MOL         0.4500 
     57 H10         6.6030   17.0160    9.3560 H         1 MOL         0.4500 
     58 H11         7.4680   18.4650    9.4360 H         1 MOL         0.4500 
     59 H12         8.8150   15.0210   11.0230 H         1 MOL         0.4500 
     60 H13         7.3470   15.1600   10.2600 H         1 MOL         0.4500 
     61 H14        16.2190   18.4450   13.8490 H         1 MOL         0.0000 
     62 H15        16.7230   19.4400   15.9480 H         1 MOL         0.0000 
     63 H16        15.3170   18.6920   16.7300 H         1 MOL         0.0000 
     64 H17        15.3210   20.8880   14.6150 H         1 MOL         0.0000 
     65 H18        13.1000   20.3420   14.0300 H         1 MOL         0.0000 
     66 H19        14.0920   22.2590   16.1120 H         1 MOL         0.0000 
     67 H20        15.4090   21.6070   17.0630 H         1 MOL         0.0000 
     68 H21        13.2020   21.5970   18.2650 H         1 MOL         0.0000 
     69 H22        13.8700   19.9790   18.1230 H         1 MOL         0.0000 
     70 H23        11.7230   21.2060   16.2950 H         1 MOL         0.0000 
     71 H24        11.4490   19.9950   17.5430 H         1 MOL         0.0000 
     72 H25        12.8730   18.3690   16.3550 H         1 MOL         0.0000 
     73 H26        11.5750   18.9250   15.3250 H         1 MOL         0.0000 
     74 H27        16.2900   14.0700   14.4840 H         1 MOL         0.0000 
     75 H28        18.1870   13.8770   13.1970 H         1 MOL         0.0000 
     76 H29        19.0380   13.6180   14.7390 H         1 MOL         0.0000 
     77 H30        19.7360   15.6900   13.0560 H         1 MOL         0.0000 
     78 H31        19.7610   15.8850   14.8230 H         1 MOL         0.0000 
     79 H32        18.2920   17.6140   14.4010 H         1 MOL         0.0000 
     80 H33        17.7070   16.8900   12.8670 H         1 MOL         0.0000 
     81 H34        15.8580   12.8560   16.1190 H         1 MOL         0.3700 
     82 H35        17.2810   13.1350   18.7210 H         1 MOL         0.0000 
     83 H36        16.1140   11.0270   19.3270 H         1 MOL         0.0000 
     84 H37        16.9650   10.8420   17.7890 H         1 MOL         0.0000 
     85 H38        15.2040   11.0680   17.8100 H         1 MOL         0.0000 
     86 H39        13.7110   15.5270   20.0870 H         1 MOL         0.0000 
     87 H40        12.5760   16.1960   17.3380 H         1 MOL         0.0000 
     88 H41        13.9050   17.0690   18.0790 H         1 MOL         0.0000 
     89 H42        10.2810   16.5990   18.0620 H         1 MOL         0.1500 
     90 H43        13.5620   18.3570   20.2250 H         1 MOL         0.1500 
     91 H44         8.7250   18.1580   19.1850 H         1 MOL         0.1500 
     92 H45        11.9840   19.8670   21.3780 H         1 MOL         0.1500 
     93 H46        10.8360   13.6270   20.5320 H         1 MOL         0.3700 
     94 H47        12.0430   14.6940   21.2300 H         1 MOL         0.3700 
     95 H50         8.2530   19.8650   20.7520 H         1 MOL         0.0000 
     96 H51         9.5110   21.1010   20.7530 H         1 MOL         0.0000 
     97 H52         9.3690   19.9840   22.1210 H         1 MOL         0.0000 
     98 H53        14.7890   14.8410   17.4770 H         1 MOL         0.3700 
@<TRIPOS>BOND
     1    2    1 1    
     2    2    3 1    
     3   10    2 1    
     4    3    4 1    
     5    4    5 2    
     6    5    6 1    
     7    6    7 ar   
     8    7    8 ar   
     9    7    9 ar   
    10   10   11 2    
    11   12   10 am   
    12   13   12 1    
    13   12   18 1    
    14   14   13 1    
    15   13   16 1    
    16   14   15 2    
    17   23   14 am   
    18   16   17 1    
    19   17   18 1    
    20   17   19 1    
    21   18   22 1    
    22   19   20 1    
    23   20   21 1    
    24   22   21 1    
    25   24   23 1    
    26   23   29 1    
    27   25   24 1    
    28   24   27 1    
    29   25   26 2    
    30   30   25 am   
    31   27   28 1    
    32   28   29 1    
    33   31   30 1    
    34   31   32 1    
    35   33   31 1    
    36   33   34 2    
    37   46   33 am   
    38   35   36 1    
    39   35   43 1    
    40   35   46 1    
    41   36   37 1    
    42   37   38 ar   
    43   37   39 ar   
    44   38   40 ar   
    45   39   41 ar   
    46   40   42 ar   
    47   41   42 ar   
    48   42   44 1    
    49   43   45 2    
    50   43   47 am   
    51    1   48 1    
    52    1   49 1    
    53    1   50 1    
    54    2   51 1    
    55    3   52 1    
    56    3   53 1    
    57    4   54 1    
    58    5   55 1    
    59    6   56 1    
    60    8   57 1    
    61    8   58 1    
    62    9   59 1    
    63    9   60 1    
    64   13   61 1    
    65   16   62 1    
    66   16   63 1    
    67   17   64 1    
    68   18   65 1    
    69   19   66 1    
    70   19   67 1    
    71   20   68 1    
    72   20   69 1    
    73   21   70 1    
    74   21   71 1    
    75   22   72 1    
    76   22   73 1    
    77   24   74 1    
    78   27   75 1    
    79   27   76 1    
    80   28   77 1    
    81   28   78 1    
    82   29   79 1    
    83   29   80 1    
    84   30   81 1    
    85   31   82 1    
    86   32   83 1    
    87   32   84 1    
    88   32   85 1    
    89   35   86 1    
    90   36   87 1    
    91   36   88 1    
    92   38   89 1    
    93   39   90 1    
    94   40   91 1    
    95   41   92 1    
    96   47   93 1    
    97   47   94 1    
    98   44   95 1    
    99   44   96 1    
   100   44   97 1    
   101   46   98 1    
@<TRIPOS>SUBSTRUCTURE
     1 MOL         1 PERM              0 ****  ****    0 ROOT 
@<TRIPOS>NORMAL
@<TRIPOS>ALT_TYPE
MMFF94_ALT_TYPE_SET 
MMFF94 2 CR 3 CR 13 CR 16 CR 17 CR 18 CR 19 CR 20 CR 21 CR 22 CR 24 CR \
27 CR 28 CR 29 CR 31 CR 32 CR 35 CR 36 CR 44 CR 37 CB \
38 CB 39 CB 40 CB 41 CB 42 CB 7 CGD+ 10 C=ON 14 C=ON \
25 C=ON 33 C=ON 43 C=ON 4 C=C 5 C=C 51 HC 52 HC 53 HC \
54 HC 55 HC 61 HC 62 HC 63 HC 64 HC 65 HC 66 HC 67 HC \
68 HC 69 HC 70 HC 71 HC 72 HC 73 HC 74 HC 75 HC 76 HC \
77 HC 78 HC 79 HC 80 HC 82 HC 83 HC 84 HC 85 HC 86 HC \
87 HC 88 HC 89 HC 90 HC 91 HC 92 HC 95 HC 96 HC 97 HC \
56 HGD+ 57 HGD+ 58 HGD+ 59 HGD+ 60 HGD+ 81 HNCO 98 HNCO \
93 HNCO 94 HNCO 48 HNR+ 49 HNR+ 50 HNR+ 11 O=CN 15 O=CN \
26 O=CN 34 O=CN 45 O=CN 1 NR+ 6 NGD+ 8 NGD+ 9 NGD+ \
12 NC=O 23 NC=O 30 NC=O 46 NC=O 47 NC=O 
