#	Name:			1q8t_ligand
#	Creating user name:	suminyi
#	Creation time:		Sun Sep 30 06:51:02 2018

#	Modifying user name:	suminyi
#	Modification time:	Sun Sep 30 06:51:02 2018

@<TRIPOS>MOLECULE
1q8t_ligand
   40    41     1     1     0
SMALL
MMFF94_CHARGES


@<TRIPOS>ATOM
      1 O23         7.8110    9.7830    1.8220 O.2       1 MOL        -0.5700 
      2 C22         8.1070    9.3610    2.9230 C.2       1 MOL         0.5690 
      3 C31         9.5200    8.9170    3.2550 C.3       1 MOL         0.0610 
      4 C36         9.9100    7.7530    2.3160 C.3       1 MOL         0.0000 
      5 C35        11.3790    7.3490    2.4850 C.3       1 MOL         0.0000 
      6 C34        12.3490    8.5380    2.2870 C.3       1 MOL         0.0000 
      7 C33        11.9820    9.6360    3.3210 C.3       1 MOL         0.0000 
      8 C32        10.5190   10.0930    3.1260 C.3       1 MOL         0.0000 
      9 C41        13.8090    8.0240    2.4150 C.3       1 MOL         0.5030 
     10 C42        14.2730    7.3730    1.0990 C.3       1 MOL         0.0000 
     11 N43        14.8020    9.0900    2.7600 N.4       1 MOL        -0.8530 
     12 N21         7.2220    9.2380    3.9310 N.am      1 MOL        -0.5470 
     13 C14         5.8140    9.4840    3.9530 C.ar      1 MOL         0.1170 
     14 C15         5.1900    9.6320    5.1840 C.ar      1 MOL        -0.1500 
     15 C16         3.8120    9.7990    5.2390 C.ar      1 MOL         0.1600 
     16 N11         3.0430    9.8680    4.1350 N.ar      1 MOL        -0.6200 
     17 C12         3.6450    9.7110    2.9360 C.ar      1 MOL         0.1600 
     18 C13         5.0160    9.5170    2.8120 C.ar      1 MOL        -0.1500 
     19 H1          9.5580    8.5480    4.2850 H         1 MOL         0.0000 
     20 H2          9.7410    8.0300    1.2700 H         1 MOL         0.0000 
     21 H3          9.2880    6.8800    2.5260 H         1 MOL         0.0000 
     22 H4         11.5750    6.5710    1.7560 H         1 MOL         0.0000 
     23 H5         11.5220    6.9090    3.4760 H         1 MOL         0.0000 
     24 H6         12.2060    8.9430    1.2790 H         1 MOL         0.0000 
     25 H7         12.6270   10.5090    3.2080 H         1 MOL         0.0000 
     26 H8         12.1120    9.2520    4.3380 H         1 MOL         0.0000 
     27 H9         10.2730   10.8680    3.8570 H         1 MOL         0.0000 
     28 H10        10.4270   10.5340    2.1300 H         1 MOL         0.0000 
     29 H11        13.8270    7.2780    3.2190 H         1 MOL         0.0000 
     30 H12        15.1050    6.6890    1.2620 H         1 MOL         0.0000 
     31 H13        14.5730    8.1230    0.3640 H         1 MOL         0.0000 
     32 H14        13.4740    6.8100    0.6240 H         1 MOL         0.0000 
     33 H15        14.5640    9.6210    3.6220 H         1 MOL         0.4500 
     34 H16        14.8200    9.7970    2.0130 H         1 MOL         0.4500 
     35 H17        15.7530    8.7250    2.8790 H         1 MOL         0.4500 
     36 H18         7.6040    8.8970    4.7970 H         1 MOL         0.3700 
     37 H19         5.7630    9.6040    6.1030 H         1 MOL         0.1500 
     38 H20         3.2940    9.9020    6.1910 H         1 MOL         0.1500 
     39 H21         2.9960    9.7520    2.0630 H         1 MOL         0.1500 
     40 H22         5.4320    9.3880    1.8200 H         1 MOL         0.1500 
@<TRIPOS>BOND
     1    1    2 2    
     2    2    3 1    
     3    2   12 am   
     4    3    4 1    
     5    3    8 1    
     6    4    5 1    
     7    5    6 1    
     8    6    7 1    
     9    6    9 1    
    10    7    8 1    
    11    9   10 1    
    12    9   11 1    
    13   12   13 1    
    14   13   14 ar   
    15   13   18 ar   
    16   14   15 ar   
    17   15   16 ar   
    18   16   17 ar   
    19   17   18 ar   
    20    3   19 1    
    21    4   20 1    
    22    4   21 1    
    23    5   22 1    
    24    5   23 1    
    25    6   24 1    
    26    7   25 1    
    27    7   26 1    
    28    8   27 1    
    29    8   28 1    
    30    9   29 1    
    31   10   30 1    
    32   10   31 1    
    33   10   32 1    
    34   11   33 1    
    35   11   34 1    
    36   11   35 1    
    37   12   36 1    
    38   14   37 1    
    39   15   38 1    
    40   17   39 1    
    41   18   40 1    
@<TRIPOS>SUBSTRUCTURE
     1 MOL         1 PERM              0 ****  ****    0 ROOT 
@<TRIPOS>NORMAL
@<TRIPOS>ALT_TYPE
MMFF94_ALT_TYPE_SET 
MMFF94 3 CR 4 CR 5 CR 6 CR 7 CR 8 CR 9 CR 10 CR 13 CB 14 CB 15 CB 17 CB \
18 CB 2 C=ON 19 HC 20 HC 21 HC 22 HC 23 HC 24 HC 25 HC \
26 HC 27 HC 28 HC 29 HC 30 HC 31 HC 32 HC 37 HC 38 HC \
39 HC 40 HC 36 HNCC 33 HNR+ 34 HNR+ 35 HNR+ 1 O=CN 16 NPYD \
11 NR+ 12 NC=O
