#	Name:			3rlr_ligand
#	Creating user name:	suminyi
#	Creation time:		Sun Sep 30 06:51:11 2018

#	Modifying user name:	suminyi
#	Modification time:	Sun Sep 30 06:51:12 2018

@<TRIPOS>MOLECULE
3rlr_ligand
   35    37     1     1     0
SMALL
MMFF94_CHARGES


@<TRIPOS>ATOM
      1 N1         17.2340   -1.9730   49.4850 N.ar      1 MOL        -0.5670 
      2 N3         17.1510    0.3320   48.7620 N.pl3     1 MOL         0.0332 
      3 C4         15.5300   -0.4130   50.0550 C.ar      1 MOL         0.0000 
      4 C5         15.2500    0.9580   49.7590 C.2       1 MOL         0.0190 
      5 C6         16.2740    1.3840   48.9460 C.2       1 MOL        -0.3316 
      6 C7         17.3080   -4.1450   50.5700 C.3       1 MOL         0.1435 
      7 C8         13.6220   -1.2050   51.5770 C.ar      1 MOL         0.0000 
      8 C10        11.2120   -0.9690   51.5980 C.ar      1 MOL        -0.1500 
      9 C13        13.6000   -1.3440   52.9760 C.ar      1 MOL        -0.1500 
     10 C15        14.2120    1.7670   50.3150 C.1       1 MOL         0.5381 
     11 C12        12.3950   -1.2850   53.6810 C.ar      1 MOL         0.0825 
     12 C9         12.4110   -0.9940   50.8920 C.ar      1 MOL         0.1770 
     13 C11        11.1970   -1.1280   52.9820 C.ar      1 MOL         0.1770 
     14 C2         14.9150   -1.3860   50.8460 C.ar      1 MOL         0.3100 
     15 C3         16.6900   -0.7490   49.4120 C.ar      1 MOL         0.1054 
     16 C1         16.6320   -2.8170   50.3320 C.ar      1 MOL         0.4765 
     17 C16        16.4820    2.7950   48.4790 C.3       1 MOL         0.1800 
     18 C14        13.5440   -1.4450   55.8890 C.3       1 MOL         0.2800 
     19 N4         13.4200    2.4530   50.7710 N.1       1 MOL        -0.5571 
     20 N2         15.4990   -2.5880   51.0050 N.ar      1 MOL        -0.6200 
     21 O1         12.3560   -1.3900   55.0620 O.3       1 MOL        -0.3625 
     22 Cl2        12.3570   -0.8270   49.1680 Cl        1 MOL        -0.1770 
     23 Cl1         9.6750   -1.1420   53.8140 Cl        1 MOL        -0.1770 
     24 H1         18.0870    0.4130   48.3500 H         1 MOL         0.2700 
     25 H2         18.0080   -4.3740   49.7660 H         1 MOL         0.0000 
     26 H3         16.5700   -4.9450   50.6350 H         1 MOL         0.0000 
     27 H4         17.8600   -4.1100   51.5090 H         1 MOL         0.0000 
     28 H5         10.2760   -0.8400   51.0620 H         1 MOL         0.1500 
     29 H6         14.5350   -1.5150   53.5010 H         1 MOL         0.1500 
     30 H7         15.5390    3.3180   48.3140 H         1 MOL         0.0000 
     31 H8         17.0550    2.8140   47.5500 H         1 MOL         0.0000 
     32 H9         17.0410    3.3520   49.2280 H         1 MOL         0.0000 
     33 H10        13.2390   -1.4930   56.9370 H         1 MOL         0.0000 
     34 H11        14.1530   -0.5510   55.7240 H         1 MOL         0.0000 
     35 H12        14.1200   -2.3410   55.6390 H         1 MOL         0.0000 
@<TRIPOS>BOND
     1   15    1 ar   
     2    1   16 ar   
     3    2    5 1    
     4   15    2 1    
     5    3    4 1    
     6   14    3 ar   
     7    3   15 ar   
     8    4    5 2    
     9    4   10 1    
    10    5   17 1    
    11   16    6 1    
    12    7    9 ar   
    13    7   12 ar   
    14    7   14 1    
    15   12    8 ar   
    16    8   13 ar   
    17    9   11 ar   
    18   10   19 3    
    19   11   13 ar   
    20   11   21 1    
    21   12   22 1    
    22   13   23 1    
    23   14   20 ar   
    24   16   20 ar   
    25   21   18 1    
    26    2   24 1    
    27    6   25 1    
    28    6   26 1    
    29    6   27 1    
    30    8   28 1    
    31    9   29 1    
    32   17   30 1    
    33   17   31 1    
    34   17   32 1    
    35   18   33 1    
    36   18   34 1    
    37   18   35 1    
@<TRIPOS>SUBSTRUCTURE
     1 MOL         1 PERM              0 ****  ****    0 ROOT 
@<TRIPOS>NORMAL
@<TRIPOS>ALT_TYPE
MMFF94_ALT_TYPE_SET 
MMFF94 6 CR 17 CR 18 CR 5 C5A 15 C5A 4 C5B 3 C5B 7 CB 8 CB 9 CB 11 CB \
12 CB 13 CB 14 CB 16 CB 10 CSP 25 HC 26 HC 27 HC 28 HC \
29 HC 30 HC 31 HC 32 HC 33 HC 34 HC 35 HC 24 HPYL 21 OC=C \
1 NPYD 20 NPYD 2 NPYL 19 NSP 22 CL 23 CL 
