#	Name:			3b68_ligand
#	Creating user name:	suminyi
#	Creation time:		Sun Sep 30 06:48:45 2018

#	Modifying user name:	suminyi
#	Modification time:	Sun Sep 30 06:48:45 2018

@<TRIPOS>MOLECULE
3b68_ligand
   49    50     1     1     0
SMALL
MMFF94_CHARGES


@<TRIPOS>ATOM
      1 C24        29.5300   -0.1530   14.0740 C.3       1 B68         0.0610 
      2 C23        30.0740   -0.0310   12.6490 C.2       1 B68         0.5690 
      3 O23        31.1890   -0.4680   12.3650 O.2       1 B68        -0.5700 
      4 N22        29.2660    0.5970   11.7970 N.am      1 B68        -0.5470 
      5 C19        29.5320    0.8060   10.5070 C.ar      1 B68         0.1170 
      6 C18        30.7030    0.3490    9.9050 C.ar      1 B68        -0.1500 
      7 C17        30.9330    0.5700    8.5500 C.ar      1 B68        -0.1500 
      8 C20        28.5950    1.4870    9.7360 C.ar      1 B68        -0.1500 
      9 C21        28.8200    1.7080    8.3800 C.ar      1 B68        -0.1500 
     10 C16        29.9910    1.2480    7.7820 C.ar      1 B68         0.0825 
     11 O14        30.2290    1.5120    6.4680 O.3       1 B68        -0.3625 
     12 C13        29.9660    0.3720    5.6340 C.3       1 B68         0.2800 
     13 C11        29.7360    0.8170    4.1980 C.3       1 B68         0.3410 
     14 O11        30.8080    1.6700    3.7880 O.3       1 B68        -0.6800 
     15 C12        29.6590   -0.4110    3.2890 C.3       1 B68         0.0000 
     16 C10        28.4240    1.6000    4.1380 C.2       1 B68         0.5690 
     17 O10        27.3540    1.0420    4.3760 O.2       1 B68        -0.5700 
     18 N9         28.5640    2.8920    3.8460 N.am      1 B68        -0.5470 
     19 C6         27.5700    3.7740    3.7430 C.ar      1 B68         0.1170 
     20 C5         26.2350    3.4430    3.9690 C.ar      1 B68        -0.1500 
     21 C1         27.8860    5.0910    3.4350 C.ar      1 B68        -0.1500 
     22 C2         26.8720    6.0420    3.3750 C.ar      1 B68        -0.1500 
     23 C3         25.5430    5.7060    3.6190 C.ar      1 B68         0.1330 
     24 N8         24.6680    6.7110    3.5770 N.2       1 B68         0.9070 
     25 O1         23.3010    6.5660    3.9340 O.2       1 B68        -0.5200 
     26 O2         25.1230    8.0190    3.2620 O.2       1 B68        -0.5200 
     27 C4         25.2030    4.3800    3.9100 C.ar      1 B68        -0.1435 
     28 C7         23.7570    3.8990    4.1370 C.3       1 B68         1.1635 
     29 F2         23.3000    4.3270    5.3100 F         1 B68        -0.3400 
     30 F1         22.9170    4.3100    3.1910 F         1 B68        -0.3400 
     31 F3         23.6710    2.5720    4.1530 F         1 B68        -0.3400 
     32 H1         28.5262    0.2943   14.1228 H         1 B68         0.0000 
     33 H2         30.2004    0.3740   14.7688 H         1 B68         0.0000 
     34 H3         29.4722   -1.2150   14.3548 H         1 B68         0.0000 
     35 H4         28.3948    0.9373   12.1508 H         1 B68         0.3700 
     36 H5         31.4400   -0.1824   10.4962 H         1 B68         0.1500 
     37 H6         31.8483    0.2131    8.0918 H         1 B68         0.1500 
     38 H7         27.6820    1.8486   10.1951 H         1 B68         0.1500 
     39 H8         28.0828    2.2389    7.7886 H         1 B68         0.1500 
     40 H9         29.0694   -0.1486    6.0015 H         1 B68         0.0000 
     41 H10        30.8273   -0.3113    5.6696 H         1 B68         0.0000 
     42 H11        30.8402    2.4312    4.3554 H         1 B68         0.4000 
     43 H12        29.4926   -0.0886    2.2505 H         1 B68         0.0000 
     44 H13        28.8267   -1.0540    3.6111 H         1 B68         0.0000 
     45 H14        30.6023   -0.9733    3.3517 H         1 B68         0.0000 
     46 H15        29.4928    3.2285    3.6910 H         1 B68         0.3700 
     47 H16        25.9880    2.4132    4.2006 H         1 B68         0.1500 
     48 H17        28.9142    5.3757    3.2429 H         1 B68         0.1500 
     49 H18        27.1226    7.0684    3.1326 H         1 B68         0.1500 
@<TRIPOS>BOND
     1    1    2 1    
     2    2    3 2    
     3    2    4 am   
     4    4    5 1    
     5    5    6 ar   
     6    5    8 ar   
     7    6    7 ar   
     8    7   10 ar   
     9    8    9 ar   
    10    9   10 ar   
    11   10   11 1    
    12   11   12 1    
    13   12   13 1    
    14   13   14 1    
    15   13   15 1    
    16   13   16 1    
    17   16   17 2    
    18   16   18 am   
    19   18   19 1    
    20   19   20 ar   
    21   19   21 ar   
    22   20   27 ar   
    23   21   22 ar   
    24   22   23 ar   
    25   23   24 1    
    26   23   27 ar   
    27   24   25 2    
    28   24   26 2    
    29   27   28 1    
    30   28   29 1    
    31   28   30 1    
    32   28   31 1    
    33    1   32 1    
    34    1   33 1    
    35    1   34 1    
    36    4   35 1    
    37    6   36 1    
    38    7   37 1    
    39    8   38 1    
    40    9   39 1    
    41   12   40 1    
    42   12   41 1    
    43   14   42 1    
    44   15   43 1    
    45   15   44 1    
    46   15   45 1    
    47   18   46 1    
    48   20   47 1    
    49   21   48 1    
    50   22   49 1    
@<TRIPOS>SUBSTRUCTURE
     1 B68         1 PERM              0 ****  ****    0 ROOT 
@<TRIPOS>NORMAL
@<TRIPOS>ALT_TYPE
MMFF94_ALT_TYPE_SET 
MMFF94 1 CR 12 CR 13 CR 15 CR 28 CR 5 CB 6 CB 7 CB 8 CB 9 CB 10 CB 19 CB \
20 CB 21 CB 22 CB 23 CB 27 CB 2 C=ON 16 C=ON 32 HC 33 HC \
34 HC 36 HC 37 HC 38 HC 39 HC 40 HC 41 HC 43 HC 44 HC \
45 HC 47 HC 48 HC 49 HC 35 HNCC 46 HNCC 42 HOR 3 O=CN \
17 O=CN 25 O2N 26 O2N 11 OC=C 14 OR 24 NO2 4 NC=O 18 NC=O \
29 F 30 F 31 F 
