#	Name:			3b68_ligand
#	Creating user name:	suminyi
#	Creation time:		Sun Sep 30 06:50:57 2018

#	Modifying user name:	suminyi
#	Modification time:	Sun Sep 30 06:50:57 2018

@<TRIPOS>MOLECULE
3b68_ligand
   49    50     1     1     0
SMALL
MMFF94_CHARGES


@<TRIPOS>ATOM
      1 C24        29.5120   -0.2530   14.1200 C.3       1 MOL         0.0610 
      2 C23        30.0840   -0.1060   12.7370 C.2       1 MOL         0.5690 
      3 O23        31.0620   -0.7260   12.4000 O.2       1 MOL        -0.5700 
      4 N22        29.4200    0.7360   11.9210 N.am      1 MOL        -0.5470 
      5 C19        29.5880    0.9680   10.5150 C.ar      1 MOL         0.1170 
      6 C18        30.7130    0.5540    9.7930 C.ar      1 MOL        -0.1500 
      7 C17        30.7720    0.7190    8.4110 C.ar      1 MOL        -0.1500 
      8 C20        28.5700    1.6420    9.8440 C.ar      1 MOL        -0.1500 
      9 C21        28.6380    1.8230    8.4630 C.ar      1 MOL        -0.1500 
     10 C16        29.7210    1.3360    7.7420 C.ar      1 MOL         0.0825 
     11 O14        29.7330    1.4900    6.3740 O.3       1 MOL        -0.3625 
     12 C13        29.9770    0.3570    5.5040 C.3       1 MOL         0.2800 
     13 C11        29.6320    0.7210    4.0440 C.3       1 MOL         0.3410 
     14 O11        30.7060    1.5150    3.5070 O.3       1 MOL        -0.6800 
     15 C12        29.5790   -0.5560    3.1730 C.3       1 MOL         0.0000 
     16 C10        28.2730    1.4580    4.0230 C.2       1 MOL         0.5690 
     17 O10        27.2250    0.8790    4.2260 O.2       1 MOL        -0.5700 
     18 N9         28.3260    2.7880    3.7890 N.am      1 MOL        -0.5470 
     19 C6         27.3160    3.8090    3.7610 C.ar      1 MOL         0.1170 
     20 C5         25.9510    3.5730    3.9440 C.ar      1 MOL        -0.1500 
     21 C1         27.7400    5.1130    3.5370 C.ar      1 MOL        -0.1500 
     22 C2         26.8260    6.1610    3.4850 C.ar      1 MOL        -0.1500 
     23 C3         25.4610    5.9310    3.6390 C.ar      1 MOL         0.1330 
     24 N8         24.5650    7.1050    3.4500 N.2       1 MOL         0.9070 
     25 O1         24.1230    7.6900    4.4220 O.3       1 MOL        -0.5200 
     26 O2         24.5340    7.6030    2.3410 O.2       1 MOL        -0.5200 
     27 C4         25.0040    4.6130    3.8690 C.ar      1 MOL        -0.1435 
     28 C7         23.5180    4.2610    4.0520 C.3       1 MOL         1.1635 
     29 F2         23.1330    4.4560    5.3170 F         1 MOL        -0.3400 
     30 F1         22.6900    4.9820    3.2790 F         1 MOL        -0.3400 
     31 F3         23.2410    2.9760    3.7660 F         1 MOL        -0.3400 
     32 H1         28.4470   -0.0160   14.1320 H         1 MOL         0.0000 
     33 H2         30.0330    0.4170   14.8060 H         1 MOL         0.0000 
     34 H3         29.6380   -1.2820   14.4600 H         1 MOL         0.0000 
     35 H4         28.6900    1.2670   12.3590 H         1 MOL         0.3700 
     36 H5         31.5690    0.1170   10.2940 H         1 MOL         0.1500 
     37 H6         31.6460    0.3890    7.8570 H         1 MOL         0.1500 
     38 H7         27.7180    2.0320   10.3900 H         1 MOL         0.1500 
     39 H8         27.8300    2.3110    7.9310 H         1 MOL         0.1500 
     40 H9         29.3220   -0.4500    5.8240 H         1 MOL         0.0000 
     41 H10        31.0210    0.0380    5.5850 H         1 MOL         0.0000 
     42 H11        31.5710    0.9890    3.4520 H         1 MOL         0.4000 
     43 H12        29.3430   -0.2980    2.1380 H         1 MOL         0.0000 
     44 H13        28.8120   -1.2460    3.5350 H         1 MOL         0.0000 
     45 H14        30.5380   -1.0780    3.1830 H         1 MOL         0.0000 
     46 H15        29.2710    3.1130    3.6360 H         1 MOL         0.3700 
     47 H16        25.6100    2.5600    4.1440 H         1 MOL         0.1500 
     48 H17        28.7960    5.3180    3.3900 H         1 MOL         0.1500 
     49 H18        27.1740    7.1760    3.3050 H         1 MOL         0.1500 
@<TRIPOS>BOND
     1    1    2 1    
     2    2    3 2    
     3    2    4 am   
     4    4    5 1    
     5    5    6 ar   
     6    5    8 ar   
     7    6    7 ar   
     8    7   10 ar   
     9    8    9 ar   
    10    9   10 ar   
    11   10   11 1    
    12   11   12 1    
    13   12   13 1    
    14   13   14 1    
    15   13   15 1    
    16   13   16 1    
    17   16   17 2    
    18   16   18 am   
    19   18   19 1    
    20   19   20 ar   
    21   19   21 ar   
    22   20   27 ar   
    23   21   22 ar   
    24   22   23 ar   
    25   23   24 1    
    26   23   27 ar   
    27   24   25 2    
    28   24   26 2    
    29   27   28 1    
    30   28   29 1    
    31   28   30 1    
    32   28   31 1    
    33    1   32 1    
    34    1   33 1    
    35    1   34 1    
    36    4   35 1    
    37    6   36 1    
    38    7   37 1    
    39    8   38 1    
    40    9   39 1    
    41   12   40 1    
    42   12   41 1    
    43   14   42 1    
    44   15   43 1    
    45   15   44 1    
    46   15   45 1    
    47   18   46 1    
    48   20   47 1    
    49   21   48 1    
    50   22   49 1    
@<TRIPOS>SUBSTRUCTURE
     1 MOL         1 PERM              0 ****  ****    0 ROOT 
@<TRIPOS>NORMAL
@<TRIPOS>ALT_TYPE
MMFF94_ALT_TYPE_SET 
MMFF94 1 CR 12 CR 13 CR 15 CR 28 CR 5 CB 6 CB 7 CB 8 CB 9 CB 10 CB 19 CB \
20 CB 21 CB 22 CB 23 CB 27 CB 2 C=ON 16 C=ON 32 HC 33 HC \
34 HC 36 HC 37 HC 38 HC 39 HC 40 HC 41 HC 43 HC 44 HC \
45 HC 47 HC 48 HC 49 HC 35 HNCC 46 HNCC 42 HOR 3 O=CN \
17 O=CN 25 O2N 26 O2N 11 OC=C 14 OR 24 NO2 4 NC=O 18 NC=O \
29 F 30 F 31 F 
