#	Name:			3ejr_ligand
#	Creating user name:	suminyi
#	Creation time:		Sun Sep 30 06:50:56 2018

#	Modifying user name:	suminyi
#	Modification time:	Sun Sep 30 06:50:56 2018

@<TRIPOS>MOLECULE
3ejr_ligand
   55    57     1     1     0
SMALL
MMFF94_CHARGES


@<TRIPOS>ATOM
      1 O10        26.7220   65.2450    8.2190 O.2       1 MOL        -0.5700 
      2 C10        27.1510   66.2330    8.7950 C.2       1 MOL         0.4228 
      3 C11        26.2130   67.1820    9.5040 C.ar      1 MOL         0.0862 
      4 C12        26.6880   68.2720   10.2420 C.ar      1 MOL        -0.1500 
      5 C13        25.8070   69.1330   10.8890 C.ar      1 MOL        -0.1500 
      6 C14        24.4240   68.9500   10.8200 C.ar      1 MOL        -0.1435 
      7 C17        23.4990   69.9340   11.5690 C.3       1 MOL         0.1435 
      8 C18        23.7680   71.3900   11.1090 C.3       1 MOL         0.0000 
      9 C19        21.9880   69.6590   11.3470 C.3       1 MOL         0.0000 
     10 C20        23.7660   69.8400   13.0930 C.3       1 MOL         0.0000 
     11 C15        23.9500   67.8530   10.0870 C.ar      1 MOL        -0.1500 
     12 C16        24.8310   66.9790    9.4460 C.ar      1 MOL        -0.1500 
     13 C9         28.6320   66.5570    8.8290 C.3       1 MOL         0.0610 
     14 C5         29.5690   65.5130    8.1870 C.3       1 MOL         0.5030 
     15 N4         31.0110   65.7930    8.4510 N.4       1 MOL        -0.9590 
     16 C3         31.4780   66.1300    9.8460 C.3       1 MOL         0.5030 
     17 C2         32.9510   66.4420    9.6140 C.3       1 MOL         0.2800 
     18 O2         33.4880   65.1500    9.5850 O.3       1 MOL        -0.6800 
     19 C1         33.0660   67.0180    8.1740 C.3       1 MOL         0.2800 
     20 O1         33.9160   66.1810    7.3710 O.3       1 MOL        -0.6800 
     21 C8A        31.6030   66.9470    7.6880 C.3       1 MOL         0.5030 
     22 C8         31.4150   66.8610    6.1650 C.3       1 MOL         0.2800 
     23 O8         31.7340   68.1170    5.5950 O.3       1 MOL        -0.6800 
     24 C7         29.9220   66.5990    5.8660 C.3       1 MOL         0.0000 
     25 C6         29.3940   65.3730    6.6520 C.3       1 MOL         0.0000 
     26 H1         27.7530   68.4760   10.3320 H         1 MOL         0.1500 
     27 H2         26.2170   69.9570   11.4630 H         1 MOL         0.1500 
     28 H3         23.0940   72.0910   11.6080 H         1 MOL         0.0000 
     29 H4         23.6110   71.4870   10.0340 H         1 MOL         0.0000 
     30 H5         24.7900   71.7030   11.3290 H         1 MOL         0.0000 
     31 H6         21.7110   68.6670   11.7100 H         1 MOL         0.0000 
     32 H7         21.7270   69.7290   10.2890 H         1 MOL         0.0000 
     33 H8         21.3750   70.3890   11.8830 H         1 MOL         0.0000 
     34 H9         24.7970   70.1050   13.3350 H         1 MOL         0.0000 
     35 H10        23.5900   68.8220   13.4500 H         1 MOL         0.0000 
     36 H11        23.1090   70.5140   13.6490 H         1 MOL         0.0000 
     37 H12        22.8860   67.6560   10.0040 H         1 MOL         0.1500 
     38 H13        24.4310   66.1330    8.8910 H         1 MOL         0.1500 
     39 H14        28.9000   66.6350    9.8820 H         1 MOL         0.0000 
     40 H15        28.8000   67.5340    8.3780 H         1 MOL         0.0000 
     41 H16        29.3830   64.5460    8.6630 H         1 MOL         0.0000 
     42 H17        31.5630   64.9390    8.1370 H         1 MOL         0.4500 
     43 H18        31.3590   65.2840   10.5340 H         1 MOL         0.0000 
     44 H19        30.9570   67.0090   10.2250 H         1 MOL         0.0000 
     45 H20        33.4020   67.0560   10.4010 H         1 MOL         0.0000 
     46 H21        33.2700   64.7630    8.6840 H         1 MOL         0.4000 
     47 H22        33.4440   68.0380    8.1600 H         1 MOL         0.0000 
     48 H23        34.8540   66.1990    7.7530 H         1 MOL         0.4000 
     49 H24        31.0880   67.8460    8.0310 H         1 MOL         0.0000 
     50 H25        32.0390   66.0670    5.7440 H         1 MOL         0.0000 
     51 H26        32.7070   68.1290    5.2350 H         1 MOL         0.4000 
     52 H27        29.7960   66.4340    4.7980 H         1 MOL         0.0000 
     53 H28        29.3410   67.4880    6.1180 H         1 MOL         0.0000 
     54 H29        28.3610   65.1790    6.3970 H         1 MOL         0.0000 
     55 H30        29.9590   64.4990    6.3210 H         1 MOL         0.0000 
@<TRIPOS>BOND
     1    1    2 2    
     2    2    3 1    
     3    2   13 1    
     4    3    4 ar   
     5    3   12 ar   
     6    4    5 ar   
     7    5    6 ar   
     8    6    7 1    
     9    6   11 ar   
    10    7    8 1    
    11    7    9 1    
    12    7   10 1    
    13   11   12 ar   
    14   13   14 1    
    15   14   15 1    
    16   14   25 1    
    17   15   16 1    
    18   15   21 1    
    19   16   17 1    
    20   17   18 1    
    21   17   19 1    
    22   19   20 1    
    23   19   21 1    
    24   21   22 1    
    25   22   23 1    
    26   22   24 1    
    27   24   25 1    
    28    4   26 1    
    29    5   27 1    
    30    8   28 1    
    31    8   29 1    
    32    8   30 1    
    33    9   31 1    
    34    9   32 1    
    35    9   33 1    
    36   10   34 1    
    37   10   35 1    
    38   10   36 1    
    39   11   37 1    
    40   12   38 1    
    41   13   39 1    
    42   13   40 1    
    43   14   41 1    
    44   15   42 1    
    45   16   43 1    
    46   16   44 1    
    47   17   45 1    
    48   18   46 1    
    49   19   47 1    
    50   20   48 1    
    51   21   49 1    
    52   22   50 1    
    53   23   51 1    
    54   24   52 1    
    55   24   53 1    
    56   25   54 1    
    57   25   55 1    
@<TRIPOS>SUBSTRUCTURE
     1 MOL         1 PERM              0 ****  ****    0 ROOT 
@<TRIPOS>NORMAL
@<TRIPOS>ALT_TYPE
MMFF94_ALT_TYPE_SET 
MMFF94 7 CR 8 CR 9 CR 10 CR 13 CR 14 CR 16 CR 17 CR 19 CR 21 CR 22 CR \
24 CR 25 CR 3 CB 4 CB 5 CB 6 CB 11 CB 12 CB 2 C=OR 26 HC \
27 HC 28 HC 29 HC 30 HC 31 HC 32 HC 33 HC 34 HC 35 HC \
36 HC 37 HC 38 HC 39 HC 40 HC 41 HC 43 HC 44 HC 45 HC \
47 HC 49 HC 50 HC 52 HC 53 HC 54 HC 55 HC 42 HNR+ 46 HOR \
48 HOR 51 HOR 1 O=CR 18 OR 20 OR 23 OR 15 NR+ 
