#	Name:			4ciw_ligand
#	Creating user name:	suminyi
#	Creation time:		Sun Sep 30 06:51:15 2018

#	Modifying user name:	suminyi
#	Modification time:	Sun Sep 30 06:51:15 2018

@<TRIPOS>MOLECULE
4ciw_ligand
   28    28     1     1     0
SMALL
MMFF94_CHARGES


@<TRIPOS>ATOM
      1 OAF         3.8070   13.7070   21.1500 O.3       1 MOL        -0.6800 
      2 CAC         2.8340   13.3590   22.1290 C.3       1 MOL         0.4182 
      3 CAB         2.6990   11.8320   22.0800 C.3       1 MOL         0.2800 
      4 OAG         2.1450   11.5610   20.7940 O.3       1 MOL        -0.6800 
      5 CAA         1.8520   11.3200   23.2620 C.3       1 MOL         0.0000 
      6 CAI         2.5940   11.6800   24.5820 C.3       1 MOL         0.3122 
      7 CAH         1.7410   11.4240   25.8510 C.2       1 MOL         0.9060 
      8 OAO         2.2740   11.4260   26.9450 O.co2     1 MOL        -0.9000 
      9 OAN         0.5310   11.3930   25.7610 O.co2     1 MOL        -0.9000 
     10 OAM         3.8040   10.8970   24.5440 O.3       1 MOL        -0.6800 
     11 CAE         3.0400   13.1350   24.5920 C.2       1 MOL        -0.2882 
     12 CAD         3.1650   13.9000   23.5080 C.2       1 MOL        -0.2764 
     13 CAL         3.5330   15.3820   23.5670 C.3       1 MOL         0.1382 
     14 CAK         3.2320   16.0600   24.9240 C.3       1 MOL         0.2800 
     15 OAJ         3.2660   17.4820   24.7810 O.3       1 MOL        -0.6800 
     16 H           3.5020   14.6120   20.7930 H         1 MOL         0.4000 
     17 H1          1.8800   13.7910   21.8220 H         1 MOL         0.0000 
     18 H2          3.6960   11.3820   22.1280 H         1 MOL         0.0000 
     19 H3          2.8670   11.9920   20.2690 H         1 MOL         0.4000 
     20 H4          1.7290   10.2360   23.1960 H         1 MOL         0.0000 
     21 H5          0.8600   11.7710   23.2400 H         1 MOL         0.0000 
     22 H6          3.6550    9.9650   24.8650 H         1 MOL         0.4000 
     23 H7          3.2860   13.5200   25.5800 H         1 MOL         0.1500 
     24 H8          2.9730   15.9200   22.7990 H         1 MOL         0.0000 
     25 H9          4.5900   15.5080   23.3220 H         1 MOL         0.0000 
     26 H10         3.9690   15.7500   25.6650 H         1 MOL         0.0000 
     27 H11         2.2410   15.7660   25.2780 H         1 MOL         0.0000 
     28 H12         3.3590   17.8890   25.6670 H         1 MOL         0.4000 
@<TRIPOS>BOND
     1    1    2 1    
     2    2    3 1    
     3    2   12 1    
     4    3    4 1    
     5    3    5 1    
     6    5    6 1    
     7    6    7 1    
     8    6   10 1    
     9    6   11 1    
    10    7    8 ar   
    11    7    9 ar   
    12   11   12 2    
    13   12   13 1    
    14   13   14 1    
    15   14   15 1    
    16    1   16 1    
    17    2   17 1    
    18    3   18 1    
    19    4   19 1    
    20    5   20 1    
    21    5   21 1    
    22   10   22 1    
    23   11   23 1    
    24   13   24 1    
    25   13   25 1    
    26   14   26 1    
    27   14   27 1    
    28   15   28 1    
@<TRIPOS>SUBSTRUCTURE
     1 MOL         1 PERM              0 ****  ****    0 ROOT 
@<TRIPOS>NORMAL
@<TRIPOS>ALT_TYPE
MMFF94_ALT_TYPE_SET 
MMFF94 2 CR 3 CR 5 CR 6 CR 13 CR 14 CR 7 CO2M 11 C=C 12 C=C 17 HC 18 HC \
20 HC 21 HC 23 HC 24 HC 25 HC 26 HC 27 HC 16 HOR 19 HOR \
22 HOR 28 HOR 8 O2CM 9 O2CM 1 OR 4 OR 10 OR 15 OR 
