#	Name:			1nc1_ligand
#	Creating user name:	suminyi
#	Creation time:		Sun Sep 30 06:50:56 2018

#	Modifying user name:	suminyi
#	Modification time:	Sun Sep 30 06:50:56 2018

@<TRIPOS>MOLECULE
1nc1_ligand
   36    38     1     1     0
SMALL
MMFF94_CHARGES


@<TRIPOS>ATOM
      1 CS         56.3190   68.5760   22.5420 C.3       1 MOL         0.2300 
      2 S5'        55.9150   70.1670   23.3380 S.3       1 MOL        -0.4600 
      3 C5'        56.3240   71.3410   21.9980 C.3       1 MOL         0.2300 
      4 C4'        57.8330   71.6370   21.8690 C.3       1 MOL         0.2800 
      5 O4'        58.0650   72.0260   20.5020 O.3       1 MOL        -0.5600 
      6 C2'        58.0100   74.0500   21.8150 C.3       1 MOL         0.2800 
      7 O2'        58.9890   75.0850   22.0140 O.3       1 MOL        -0.6800 
      8 C3'        58.3270   72.8470   22.6900 C.3       1 MOL         0.2800 
      9 O3'        59.7570   72.7840   22.8610 O.3       1 MOL        -0.6800 
     10 C1'        58.0670   73.4720   20.3760 C.3       1 MOL         0.5356 
     11 N9         57.0220   73.8270   19.4090 N.pl3     1 MOL         0.0476 
     12 C8         57.1730   73.6100   18.0430 C.2       1 MOL        -0.3016 
     13 C7         55.9750   73.8430   17.4130 C.2       1 MOL        -0.1500 
     14 C5         55.0830   74.1920   18.4540 C.ar      1 MOL         0.0000 
     15 C6         53.7440   74.4780   18.4260 C.ar      1 MOL         0.4100 
     16 N6         53.0150   74.5380   17.3170 N.pl3     1 MOL        -0.9000 
     17 N1         53.0500   74.7380   19.5200 N.ar      1 MOL        -0.6200 
     18 C2         53.7780   74.7300   20.6530 C.ar      1 MOL         0.4700 
     19 N3         55.0830   74.4520   20.7780 N.ar      1 MOL        -0.5670 
     20 C4         55.7330   74.1710   19.6440 C.ar      1 MOL         0.1054 
     21 H1         56.0790   67.7570   23.2260 H         1 MOL         0.0000 
     22 H2         57.3840   68.5470   22.2980 H         1 MOL         0.0000 
     23 H3         55.7330   68.4630   21.6250 H         1 MOL         0.0000 
     24 H4         55.7770   72.2710   22.1620 H         1 MOL         0.0000 
     25 H5         55.9780   70.9080   21.0540 H         1 MOL         0.0000 
     26 H6         58.4040   70.7370   22.1040 H         1 MOL         0.0000 
     27 H7         57.0210   74.4110   22.0820 H         1 MOL         0.0000 
     28 H8         59.3820   75.0770   22.9530 H         1 MOL         0.4000 
     29 H9         57.8110   72.9170   23.6530 H         1 MOL         0.0000 
     30 H10        59.9910   73.3880   23.6070 H         1 MOL         0.4000 
     31 H11        59.0310   73.7450   19.9180 H         1 MOL         0.0000 
     32 H12        58.1180   73.2920   17.6380 H         1 MOL         0.1500 
     33 H13        55.7760   73.7610   16.3500 H         1 MOL         0.1500 
     34 H14        52.0630   74.2840   17.5100 H         1 MOL         0.4000 
     35 H15        53.4290   74.0880   16.4950 H         1 MOL         0.4000 
     36 H16        53.2610   74.9780   21.5740 H         1 MOL         0.1500 
@<TRIPOS>BOND
     1    2    1 1    
     2    3    2 1    
     3    4    3 1    
     4    4    5 1    
     5    8    4 1    
     6    5   10 1    
     7    6    7 1    
     8    8    6 1    
     9    6   10 1    
    10    8    9 1    
    11   10   11 1    
    12   11   12 1    
    13   11   20 1    
    14   12   13 2    
    15   13   14 1    
    16   14   15 ar   
    17   14   20 ar   
    18   15   16 1    
    19   15   17 ar   
    20   17   18 ar   
    21   18   19 ar   
    22   19   20 ar   
    23    1   21 1    
    24    1   22 1    
    25    1   23 1    
    26    3   24 1    
    27    3   25 1    
    28    4   26 1    
    29    6   27 1    
    30    7   28 1    
    31    8   29 1    
    32    9   30 1    
    33   10   31 1    
    34   12   32 1    
    35   13   33 1    
    36   16   34 1    
    37   16   35 1    
    38   18   36 1    
@<TRIPOS>SUBSTRUCTURE
     1 MOL         1 PERM              0 ****  ****    0 ROOT 
@<TRIPOS>NORMAL
@<TRIPOS>ALT_TYPE
MMFF94_ALT_TYPE_SET 
MMFF94 1 CR 3 CR 4 CR 6 CR 8 CR 10 CR 12 C5A 20 C5A 13 C5B 14 C5B 15 CB \
18 CB 21 HC 22 HC 23 HC 24 HC 25 HC 26 HC 27 HC 29 HC \
31 HC 32 HC 33 HC 36 HC 34 HNCC 35 HNCC 28 HOR 30 HOR \
5 OR 7 OR 9 OR 17 NPYD 19 NPYD 11 NPYL 16 NC=N 2 S 
