#	Name:			2vvn_ligand
#	Creating user name:	suminyi
#	Creation time:		Sun Sep 30 06:51:03 2018

#	Modifying user name:	suminyi
#	Modification time:	Sun Sep 30 06:51:03 2018

@<TRIPOS>MOLECULE
2vvn_ligand
   32    33     1     1     0
SMALL
MMFF94_CHARGES


@<TRIPOS>ATOM
      1 C1          6.6330  -12.1790    4.2240 C.3       1 MOL         0.5100 
      2 C2          7.8510  -11.5100    3.5400 C.3       1 MOL         0.2460 
      3 C3          7.5160  -10.5720    2.3710 C.3       1 MOL         0.2800 
      4 C4          6.4210  -11.1450    1.4680 C.3       1 MOL         0.2800 
      5 C5          5.1870  -11.5350    2.3140 C.3       1 MOL         0.2800 
      6 C6          4.0500  -12.1250    1.4470 C.3       1 MOL         0.2800 
      7 C7          7.5730  -10.4910    5.5250 C.2       1 MOL         0.6410 
      8 C10         8.0180   -8.9380    8.8960 C.3       1 MOL         0.0000 
      9 N2          8.4200  -10.6540    4.5920 N.2       1 MOL        -0.6960 
     10 O3          8.7050  -10.3340    1.6060 O.3       1 MOL        -0.6800 
     11 O4          6.0690  -10.1050    0.5520 O.3       1 MOL        -0.6800 
     12 O5          5.5700  -12.5370    3.3030 O.3       1 MOL        -0.5600 
     13 N1          7.8850   -9.7130    6.5630 N.pl3     1 MOL        -0.8191 
     14 O6          4.1670  -13.5560    1.4240 O.3       1 MOL        -0.6800 
     15 S1          5.9440  -11.0640    5.4880 S.3       1 MOL        -0.3710 
     16 C9          7.1380   -9.5380    7.7980 C.3       1 MOL         0.3691 
     17 H1          6.9870  -13.0950    4.7260 H         1 MOL         0.0000 
     18 H2          8.5700  -12.2670    3.2230 H         1 MOL         0.0000 
     19 H3          7.1520   -9.6250    2.7810 H         1 MOL         0.0000 
     20 H4          6.7990  -12.0210    0.9330 H         1 MOL         0.0000 
     21 H5          4.8200  -10.6440    2.8310 H         1 MOL         0.0000 
     22 H6          4.0890  -11.7220    0.4310 H         1 MOL         0.0000 
     23 H7          3.0940  -11.8330    1.8840 H         1 MOL         0.0000 
     24 H8          7.4050   -8.6310    9.7450 H         1 MOL         0.0000 
     25 H9          8.5540   -8.0670    8.5180 H         1 MOL         0.0000 
     26 H10         8.7390   -9.6750    9.2470 H         1 MOL         0.0000 
     27 H11         8.7570   -9.3570    1.4530 H         1 MOL         0.4000 
     28 H12         6.2070  -10.5020   -0.3900 H         1 MOL         0.4000 
     29 H13         8.9140   -9.6510    6.5700 H         1 MOL         0.4000 
     30 H14         4.9560  -13.7110    1.9990 H         1 MOL         0.4000 
     31 H15         6.2960   -8.8680    7.6080 H         1 MOL         0.0000 
     32 H16         6.7520  -10.4980    8.1380 H         1 MOL         0.0000 
@<TRIPOS>BOND
     1    1    2 1    
     2    1   12 1    
     3   15    1 1    
     4    2    3 1    
     5    9    2 1    
     6    3    4 1    
     7    3   10 1    
     8    5    4 1    
     9    4   11 1    
    10    5    6 1    
    11   12    5 1    
    12    6   14 1    
    13    7    9 2    
    14   13    7 1    
    15    7   15 1    
    16   16    8 1    
    17   13   16 1    
    18    1   17 1    
    19    2   18 1    
    20    3   19 1    
    21    4   20 1    
    22    5   21 1    
    23    6   22 1    
    24    6   23 1    
    25    8   24 1    
    26    8   25 1    
    27    8   26 1    
    28   10   27 1    
    29   11   28 1    
    30   13   29 1    
    31   14   30 1    
    32   16   31 1    
    33   16   32 1    
@<TRIPOS>SUBSTRUCTURE
     1 MOL         1 PERM              0 ****  ****    0 ROOT 
@<TRIPOS>NORMAL
@<TRIPOS>ALT_TYPE
MMFF94_ALT_TYPE_SET 
MMFF94 1 CR 2 CR 3 CR 4 CR 5 CR 6 CR 8 CR 16 CR 7 C=N 17 HC 18 HC 19 HC \
20 HC 21 HC 22 HC 23 HC 24 HC 25 HC 26 HC 31 HC 32 HC \
29 HNCN 27 HOR 28 HOR 30 HOR 10 OR 11 OR 12 OR 14 OR \
9 N=C 13 NC=N 15 S 
