#	Name:			4gfm_ligand
#	Creating user name:	suminyi
#	Creation time:		Sun Sep 30 06:50:59 2018

#	Modifying user name:	suminyi
#	Modification time:	Sun Sep 30 06:50:59 2018

@<TRIPOS>MOLECULE
4gfm_ligand
   26    27     1     1     0
SMALL
MMFF94_CHARGES


@<TRIPOS>ATOM
      1 C4         31.4830  -14.6720    3.9790 C.ar      1 MOL         0.0862 
      2 C5         31.1520  -15.4450    2.8400 C.ar      1 MOL         0.1770 
      3 C6         30.5900  -16.7050    2.9850 C.ar      1 MOL        -0.1500 
      4 C11        34.2990   -9.8590    1.8220 C.2       1 MOL         0.7200 
      5 C7         32.2710  -13.3820    3.8920 C.2       1 MOL         0.5438 
      6 C8         33.9080  -12.2640    2.4120 C.2       1 MOL        -0.0292 
      7 C9         34.9750  -12.5700    1.6850 C.2       1 MOL        -0.1356 
      8 C10        35.8240  -11.5340    1.1640 C.2       1 MOL         0.3756 
      9 C12        33.5710  -10.8270    2.7210 C.3       1 MOL         0.1992 
     10 N1         33.0180  -13.2720    2.7870 N.am      1 MOL        -0.5390 
     11 N2         35.5120  -10.2910    1.2840 N.2       1 MOL        -0.6610 
     12 C3         31.0950  -15.1820    5.2320 C.ar      1 MOL         0.1770 
     13 O2         33.8740   -8.7410    1.6270 O.2       1 MOL        -0.5700 
     14 O1         32.3360  -12.5340    4.7610 O.2       1 MOL        -0.5700 
     15 Cl2        31.4630  -14.3990    6.7250 Cl        1 MOL        -0.1770 
     16 C2         30.4860  -16.4280    5.3500 C.ar      1 MOL        -0.1500 
     17 Cl1        31.2460  -14.9050    1.1880 Cl        1 MOL        -0.1770 
     18 C1         30.2660  -17.2150    4.2310 C.ar      1 MOL        -0.1500 
     19 H1         30.3940  -17.2950    2.1010 H         1 MOL         0.1500 
     20 H2         35.2350  -13.5920    1.4050 H         1 MOL         0.1500 
     21 H3         36.7390  -11.8330    0.6550 H         1 MOL         0.0600 
     22 H4         32.5020  -10.6500    2.6170 H         1 MOL         0.0000 
     23 H5         33.8510  -10.6000    3.7460 H         1 MOL         0.0000 
     24 H6         33.0100  -14.0840    2.1920 H         1 MOL         0.3700 
     25 H7         30.2150  -16.8050    6.3280 H         1 MOL         0.1500 
     26 H8         29.8360  -18.2140    4.3120 H         1 MOL         0.1500 
@<TRIPOS>BOND
     1    1    2 ar   
     2    5    1 1    
     3    1   12 ar   
     4    2    3 ar   
     5    2   17 1    
     6    3   18 ar   
     7    9    4 1    
     8    4   11 1    
     9    4   13 2    
    10   10    5 am   
    11    5   14 2    
    12    6    7 2    
    13    6    9 1    
    14    6   10 1    
    15    7    8 1    
    16    8   11 2    
    17   12   15 1    
    18   12   16 ar   
    19   16   18 ar   
    20    3   19 1    
    21    7   20 1    
    22    8   21 1    
    23    9   22 1    
    24    9   23 1    
    25   10   24 1    
    26   16   25 1    
    27   18   26 1    
@<TRIPOS>SUBSTRUCTURE
     1 MOL         1 PERM              0 ****  ****    0 ROOT 
@<TRIPOS>NORMAL
@<TRIPOS>ALT_TYPE
MMFF94_ALT_TYPE_SET 
MMFF94 9 CR 1 CB 2 CB 3 CB 12 CB 16 CB 18 CB 5 C=ON 4 C=ON 8 C=N 6 C=C \
7 C=C 19 HC 20 HC 21 HC 22 HC 23 HC 25 HC 26 HC 24 HNCC \
13 O=CN 14 O=CN 11 N=C 10 NC=O 15 CL 17 CL 
