#	Name:			4cig_ligand
#	Creating user name:	suminyi
#	Creation time:		Sun Sep 30 06:51:15 2018

#	Modifying user name:	suminyi
#	Modification time:	Sun Sep 30 06:51:15 2018

@<TRIPOS>MOLECULE
4cig_ligand
   67    70     1     1     0
SMALL
MMFF94_CHARGES


@<TRIPOS>ATOM
      1 C1         36.5990  -33.8510   -6.1080 C.ar      1 MOL         0.0000 
      2 C2         36.9960  -34.9960   -5.4180 C.ar      1 MOL         0.0000 
      3 C3         36.5350  -32.6230   -5.4520 C.ar      1 MOL        -0.1500 
      4 C4         37.3350  -34.8950   -4.0740 C.ar      1 MOL        -0.1500 
      5 C5         34.2000  -32.3350    0.9650 C.ar      1 MOL        -0.1500 
      6 C6         33.4840  -29.4840   -2.4570 C.ar      1 MOL        -0.1500 
      7 C7         35.2580  -28.7850   -0.9830 C.ar      1 MOL        -0.1500 
      8 C8         33.2790  -32.5120    1.9800 C.ar      1 MOL        -0.1500 
      9 C9         32.6300  -29.6230   -1.3640 C.ar      1 MOL        -0.1500 
     10 C10        34.3990  -28.9050    0.1060 C.ar      1 MOL        -0.1500 
     11 C11        36.8840  -32.4990   -4.0970 C.ar      1 MOL         0.0862 
     12 C12        33.1780  -34.1090   -0.3380 C.ar      1 MOL        -0.1790 
     13 C13        34.7990  -29.0560   -2.2710 C.ar      1 MOL        -0.1435 
     14 C14        37.2930  -33.6640   -3.4130 C.ar      1 MOL        -0.1435 
     15 C15        34.1920  -33.1400   -0.1650 C.ar      1 MOL        -0.1435 
     16 C16        32.3420  -33.5230    1.8770 C.ar      1 MOL        -0.1500 
     17 C17        32.2780  -34.3170    0.7290 C.ar      1 MOL         0.0825 
     18 C18        33.0870  -29.3280   -0.0780 C.ar      1 MOL         0.0825 
     19 C19        36.8160  -31.1430   -3.4210 C.2       1 MOL         0.5438 
     20 C20        33.0520  -34.8910   -1.6310 C.2       1 MOL         0.9790 
     21 C21        36.3110  -35.1670   -8.1150 C.ar      1 MOL        -0.1500 
     22 C22        30.5940  -35.8130    1.8170 C.3       1 MOL         0.2800 
     23 C24        30.8640  -29.6460    0.9600 C.3       1 MOL         0.2800 
     24 C25        35.7360  -28.9100   -3.4580 C.3       1 MOL         0.4436 
     25 C26        37.5870  -33.6930   -1.9250 C.3       1 MOL         0.6465 
     26 C27        35.3630  -32.9120   -1.1120 C.3       1 MOL         0.6465 
     27 C28        36.7740  -34.4580    0.2780 C.3       1 MOL         0.5030 
     28 C29        36.6990  -36.3130   -7.4240 C.ar      1 MOL        -0.1500 
     29 N1         36.0610  -30.2150   -4.0340 N.am      1 MOL        -0.7301 
     30 N2         36.3690  -34.0450   -1.1120 N.4       1 MOL        -0.9590 
     31 O1         32.0390  -35.5240   -1.8610 O.co2     1 MOL        -0.9000 
     32 O3         37.3620  -30.8600   -2.3730 O.2       1 MOL        -0.5700 
     33 C40        36.2700  -33.9400   -7.4580 C.ar      1 MOL        -0.1500 
     34 O4         33.8800  -34.7570   -2.5030 O.co2     1 MOL        -0.9000 
     35 C50        37.0500  -36.2260   -6.0780 C.ar      1 MOL        -0.1500 
     36 O6         31.3580  -35.3490    0.6820 O.3       1 MOL        -0.3625 
     37 O8         32.2920  -29.4600    1.0430 O.3       1 MOL        -0.3625 
     38 H          36.2500  -31.7520   -6.0360 H         1 MOL         0.1500 
     39 H1         37.6250  -35.7930   -3.5310 H         1 MOL         0.1500 
     40 H2         34.9470  -31.5560    1.0390 H         1 MOL         0.1500 
     41 H3         33.1300  -29.7190   -3.4580 H         1 MOL         0.1500 
     42 H4         36.2940  -28.4900   -0.8320 H         1 MOL         0.1500 
     43 H5         33.3070  -31.8790    2.8600 H         1 MOL         0.1500 
     44 H6         31.6130  -29.9580   -1.5310 H         1 MOL         0.1500 
     45 H7         34.7490  -28.6690    1.1060 H         1 MOL         0.1500 
     46 H8         31.6670  -33.6770    2.7110 H         1 MOL         0.1500 
     47 H9         36.0400  -35.2230   -9.1680 H         1 MOL         0.1500 
     48 H10        30.0350  -36.7000    1.5150 H         1 MOL         0.0000 
     49 H11        29.8970  -35.0320    2.1300 H         1 MOL         0.0000 
     50 H12        31.2730  -36.0690    2.6360 H         1 MOL         0.0000 
     51 H13        30.4460  -29.6190    1.9660 H         1 MOL         0.0000 
     52 H14        30.6500  -30.6140    0.5000 H         1 MOL         0.0000 
     53 H15        30.4330  -28.8360    0.3660 H         1 MOL         0.0000 
     54 H16        36.6650  -28.4140   -3.1590 H         1 MOL         0.0000 
     55 H17        35.2630  -28.2960   -4.2300 H         1 MOL         0.0000 
     56 H18        37.9810  -32.7440   -1.5620 H         1 MOL         0.0000 
     57 H19        38.3330  -34.4670   -1.7320 H         1 MOL         0.0000 
     58 H20        35.9020  -32.0070   -0.8210 H         1 MOL         0.0000 
     59 H21        35.0070  -32.7780   -2.1360 H         1 MOL         0.0000 
     60 H22        37.5010  -35.2690    0.1970 H         1 MOL         0.0000 
     61 H23        35.8840  -34.8000    0.8100 H         1 MOL         0.0000 
     62 H24        37.2130  -33.5930    0.7780 H         1 MOL         0.0000 
     63 H25        36.7270  -37.2730   -7.9340 H         1 MOL         0.1500 
     64 H26        35.4880  -30.5180   -4.8080 H         1 MOL         0.3700 
     65 H27        35.9120  -34.8480   -1.5920 H         1 MOL         0.4500 
     66 H28        35.9850  -33.0490   -8.0040 H         1 MOL         0.1500 
     67 H29        37.3560  -37.1250   -5.5440 H         1 MOL         0.1500 
@<TRIPOS>BOND
     1    2    1 ar   
     2    3    1 ar   
     3    1   33 ar   
     4    4    2 ar   
     5    2   35 ar   
     6   11    3 ar   
     7   14    4 ar   
     8    5    8 ar   
     9   15    5 ar   
    10    6    9 ar   
    11   13    6 ar   
    12    7   10 ar   
    13   13    7 ar   
    14    8   16 ar   
    15    9   18 ar   
    16   10   18 ar   
    17   14   11 ar   
    18   11   19 1    
    19   15   12 ar   
    20   12   17 ar   
    21   12   20 1    
    22   24   13 1    
    23   25   14 1    
    24   26   15 1    
    25   17   16 ar   
    26   17   36 1    
    27   18   37 1    
    28   19   29 am   
    29   19   32 2    
    30   20   31 ar   
    31   20   34 ar   
    32   21   28 ar   
    33   33   21 ar   
    34   36   22 1    
    35   37   23 1    
    36   29   24 1    
    37   30   25 1    
    38   26   30 1    
    39   30   27 1    
    40   28   35 ar   
    41    3   38 1    
    42    4   39 1    
    43    5   40 1    
    44    6   41 1    
    45    7   42 1    
    46    8   43 1    
    47    9   44 1    
    48   10   45 1    
    49   16   46 1    
    50   21   47 1    
    51   22   48 1    
    52   22   49 1    
    53   22   50 1    
    54   23   51 1    
    55   23   52 1    
    56   23   53 1    
    57   24   54 1    
    58   24   55 1    
    59   25   56 1    
    60   25   57 1    
    61   26   58 1    
    62   26   59 1    
    63   27   60 1    
    64   27   61 1    
    65   27   62 1    
    66   28   63 1    
    67   29   64 1    
    68   30   65 1    
    69   33   66 1    
    70   35   67 1    
@<TRIPOS>SUBSTRUCTURE
     1 MOL         1 PERM              0 ****  ****    0 ROOT 
@<TRIPOS>NORMAL
@<TRIPOS>ALT_TYPE
MMFF94_ALT_TYPE_SET 
MMFF94 22 CR 23 CR 24 CR 25 CR 26 CR 27 CR 1 CB 2 CB 3 CB 4 CB 5 CB \
6 CB 7 CB 8 CB 9 CB 10 CB 11 CB 12 CB 13 CB 14 CB 15 CB \
16 CB 17 CB 18 CB 21 CB 28 CB 33 CB 35 CB 20 CO2M 19 C=ON \
38 HC 39 HC 40 HC 41 HC 42 HC 43 HC 44 HC 45 HC 46 HC \
47 HC 48 HC 49 HC 50 HC 51 HC 52 HC 53 HC 54 HC 55 HC \
56 HC 57 HC 58 HC 59 HC 60 HC 61 HC 62 HC 63 HC 66 HC \
67 HC 64 HNCO 65 HNR+ 31 O2CM 34 O2CM 32 O=CN 36 OC=C \
37 OC=C 30 NR+ 29 NC=O 
