#	Name:			1gpk_ligand
#	Creating user name:	suminyi
#	Creation time:		Sun Sep 30 06:51:00 2018

#	Modifying user name:	suminyi
#	Modification time:	Sun Sep 30 06:51:00 2018

@<TRIPOS>MOLECULE
1gpk_ligand
   37    39     1     1     0
SMALL
MMFF94_CHARGES


@<TRIPOS>ATOM
      1 C1          0.7080   68.9750   60.8200 C.2       1 MOL         0.6156 
      2 O1          0.1680   69.3330   59.7990 O.2       1 MOL        -0.5700 
      3 N1          1.9560   68.5060   60.8140 N.am      1 MOL        -0.5390 
      4 C2          0.0610   68.9360   62.1220 C.2       1 MOL        -0.1356 
      5 C3          0.6410   68.3930   63.2430 C.2       1 MOL        -0.1500 
      6 C4          1.9680   67.8180   63.1000 C.2       1 MOL        -0.1382 
      7 C5          2.6200   67.9280   61.8760 C.2       1 MOL        -0.0292 
      8 C6          3.9870   67.3500   61.6090 C.3       1 MOL         0.1382 
      9 C7          4.6470   66.7310   62.8540 C.3       1 MOL         0.2764 
     10 C8          5.3720   67.8100   63.6250 C.2       1 MOL        -0.2882 
     11 C9          4.4760   63.7120   63.4930 C.3       1 MOL         0.1382 
     12 C10         3.5130   64.7630   63.9960 C.2       1 MOL        -0.2882 
     13 C11         3.5900   66.0760   63.7430 C.2       1 MOL        -0.2764 
     14 C12         2.6300   67.1320   64.2820 C.3       1 MOL         0.7794 
     15 N2          1.5420   66.5040   65.0640 N.4       1 MOL        -0.8530 
     16 C13         3.4050   68.1840   65.1260 C.3       1 MOL         0.1382 
     17 C14         4.8260   68.4490   64.6520 C.2       1 MOL        -0.2764 
     18 C15         5.5940   69.4860   65.4400 C.3       1 MOL         0.1382 
     19 H1          2.4430   68.6260   59.9460 H         1 MOL         0.3700 
     20 H2         -0.9330   69.3710   62.1390 H         1 MOL         0.1500 
     21 H3          0.0980   68.4100   64.1820 H         1 MOL         0.1500 
     22 H4          4.6540   68.1120   61.1900 H         1 MOL         0.0000 
     23 H5          3.9100   66.5830   60.8390 H         1 MOL         0.0000 
     24 H6          5.3890   66.0160   62.5020 H         1 MOL         0.0000 
     25 H7          6.3880   68.0490   63.2970 H         1 MOL         0.1500 
     26 H8          4.3930   62.8070   64.0980 H         1 MOL         0.0000 
     27 H9          5.5060   64.0570   63.5530 H         1 MOL         0.0000 
     28 H10         4.2560   63.4400   62.4610 H         1 MOL         0.0000 
     29 H11         2.7320   64.3550   64.6320 H         1 MOL         0.1500 
     30 H12         0.9000   67.2380   65.3970 H         1 MOL         0.4500 
     31 H13         1.9340   65.9860   65.8630 H         1 MOL         0.4500 
     32 H14         1.0740   65.8530   64.4190 H         1 MOL         0.4500 
     33 H15         3.4620   67.8460   66.1620 H         1 MOL         0.0000 
     34 H16         2.8510   69.1260   65.1440 H         1 MOL         0.0000 
     35 H17         6.5560   69.7150   64.9780 H         1 MOL         0.0000 
     36 H18         5.7800   69.1380   66.4570 H         1 MOL         0.0000 
     37 H19         5.0240   70.4100   65.5070 H         1 MOL         0.0000 
@<TRIPOS>BOND
     1    4    1 1    
     2    1    3 am   
     3    1    2 2    
     4    3    7 1    
     5    7    8 1    
     6    7    6 2    
     7    6   14 1    
     8    6    5 1    
     9    5    4 2    
    10   14   16 1    
    11   14   15 1    
    12   14   13 1    
    13   13   12 2    
    14   13    9 1    
    15    9   10 1    
    16    9    8 1    
    17   10   17 2    
    18   17   18 1    
    19   16   17 1    
    20   12   11 1    
    21    3   19 1    
    22    4   20 1    
    23    5   21 1    
    24    8   22 1    
    25    8   23 1    
    26    9   24 1    
    27   10   25 1    
    28   11   26 1    
    29   11   27 1    
    30   11   28 1    
    31   12   29 1    
    32   15   30 1    
    33   15   31 1    
    34   15   32 1    
    35   16   33 1    
    36   16   34 1    
    37   18   35 1    
    38   18   36 1    
    39   18   37 1    
@<TRIPOS>SUBSTRUCTURE
     1 MOL         1 PERM              0 ****  ****    0 ROOT 
@<TRIPOS>NORMAL
@<TRIPOS>ALT_TYPE
MMFF94_ALT_TYPE_SET 
MMFF94 8 CR 9 CR 11 CR 14 CR 16 CR 18 CR 1 C=ON 4 C=C 5 C=C 6 C=C 7 C=C \
10 C=C 12 C=C 13 C=C 17 C=C 20 HC 21 HC 22 HC 23 HC 24 HC \
25 HC 26 HC 27 HC 28 HC 29 HC 33 HC 34 HC 35 HC 36 HC \
37 HC 19 HNCC 30 HNR+ 31 HNR+ 32 HNR+ 2 O=CN 15 NR+ 3 NC=O \

