#	Name:			3n76_ligand
#	Creating user name:	suminyi
#	Creation time:		Sun Sep 30 06:48:43 2018

#	Modifying user name:	suminyi
#	Modification time:	Sun Sep 30 06:48:43 2018

@<TRIPOS>MOLECULE
3n76_ligand
   39    40     1     1     0
SMALL
MMFF94_CHARGES


@<TRIPOS>ATOM
      1 O2        -37.9190  -62.9070  -52.3590 O.co2     1 CA2        -0.9000 
      2 C7        -37.7280  -61.6870  -52.0010 C.2       1 CA2         0.9060 
      3 O1        -36.5970  -61.1070  -51.9230 O.co2     1 CA2        -0.9000 
      4 C1        -38.9520  -60.8160  -51.6350 C.3       1 CA2         0.3122 
      5 O3        -39.0280  -59.6360  -52.5020 O.3       1 CA2        -0.6800 
      6 C2        -38.7560  -60.5220  -50.2680 C.2       1 CA2        -0.2882 
      7 C3        -39.8330  -60.2740  -49.3930 C.2       1 CA2        -0.1382 
      8 C4        -41.3310  -60.4960  -49.7650 C.3       1 CA2         0.4182 
      9 O4        -42.2780  -59.4930  -49.2220 O.3       1 CA2        -0.6800 
     10 C5        -41.4610  -60.6470  -51.2940 C.3       1 CA2         0.2800 
     11 O5        -42.6860  -61.2920  -51.6420 O.3       1 CA2        -0.6800 
     12 C6        -40.3040  -61.5270  -51.7910 C.3       1 CA2         0.0000 
     13 C8        -39.3610  -60.1370  -48.1010 C.2       1 CA2        -0.1500 
     14 C9        -40.0460  -59.9340  -46.9290 C.2       1 CA2        -0.2882 
     15 C10       -39.1050  -59.7310  -45.9320 C.3       1 CA2         0.4182 
     16 O11       -39.1710  -60.5770  -44.8650 O.3       1 CA2        -0.3625 
     17 C12       -38.0430  -61.0090  -44.2490 C.ar      1 CA2         0.0825 
     18 C17       -36.8250  -61.1310  -44.8980 C.ar      1 CA2        -0.1500 
     19 C16       -35.6890  -61.6260  -44.2260 C.ar      1 CA2        -0.1500 
     20 C15       -35.8210  -62.0260  -42.9010 C.ar      1 CA2        -0.1500 
     21 C14       -37.0690  -61.9100  -42.2420 C.ar      1 CA2        -0.1500 
     22 C13       -38.1800  -61.4060  -42.9150 C.ar      1 CA2        -0.1500 
     23 H1        -39.7853  -59.1155  -52.2609 H         1 CA2         0.4000 
     24 H2        -37.7402  -60.4857  -49.8771 H         1 CA2         0.1500 
     25 H3        -41.6228  -61.4583  -49.3191 H         1 CA2         0.0000 
     26 H4        -43.1604  -59.7095  -49.4995 H         1 CA2         0.4000 
     27 H5        -41.4162  -59.6556  -51.7685 H         1 CA2         0.0000 
     28 H6        -42.7426  -61.3732  -52.5868 H         1 CA2         0.4000 
     29 H7        -40.2874  -62.4594  -51.2076 H         1 CA2         0.0000 
     30 H8        -40.4642  -61.7621  -52.8536 H         1 CA2         0.0000 
     31 H9        -38.2788  -60.1998  -47.9970 H         1 CA2         0.1500 
     32 H10       -41.1280  -59.9327  -46.8055 H         1 CA2         0.1500 
     33 H11       -39.2297  -58.7049  -45.5557 H         1 CA2         0.0000 
     34 H12       -38.1078  -59.8371  -46.3841 H         1 CA2         0.0000 
     35 H13       -36.7443  -60.8411  -45.9394 H         1 CA2         0.1500 
     36 H14       -34.7326  -61.6934  -44.7317 H         1 CA2         0.1500 
     37 H15       -34.9655  -62.4281  -42.3705 H         1 CA2         0.1500 
     38 H16       -37.1607  -62.2157  -41.2060 H         1 CA2         0.1500 
     39 H17       -39.1366  -61.3228  -42.4120 H         1 CA2         0.1500 
@<TRIPOS>BOND
     1    1    2 ar   
     2    2    3 ar   
     3    2    4 1    
     4    4    5 1    
     5    4    6 1    
     6    4   12 1    
     7    6    7 2    
     8    7    8 1    
     9    7   13 1    
    10    8    9 1    
    11    8   10 1    
    12   10   11 1    
    13   10   12 1    
    14   13   14 2    
    15   14   15 1    
    16   15   16 1    
    17   16   17 1    
    18   17   18 ar   
    19   17   22 ar   
    20   18   19 ar   
    21   19   20 ar   
    22   20   21 ar   
    23   21   22 ar   
    24    5   23 1    
    25    6   24 1    
    26    8   25 1    
    27    9   26 1    
    28   10   27 1    
    29   11   28 1    
    30   12   29 1    
    31   12   30 1    
    32   13   31 1    
    33   14   32 1    
    34   15   33 1    
    35   15   34 1    
    36   18   35 1    
    37   19   36 1    
    38   20   37 1    
    39   21   38 1    
    40   22   39 1    
@<TRIPOS>SUBSTRUCTURE
     1 CA2         1 PERM              0 ****  ****    0 ROOT 
@<TRIPOS>NORMAL
@<TRIPOS>ALT_TYPE
MMFF94_ALT_TYPE_SET 
MMFF94 4 CR 8 CR 10 CR 12 CR 15 CR 17 CB 18 CB 19 CB 20 CB 21 CB 22 CB \
2 CO2M 6 C=C 7 C=C 13 C=C 14 C=C 24 HC 25 HC 27 HC 29 HC \
30 HC 31 HC 32 HC 33 HC 34 HC 35 HC 36 HC 37 HC 38 HC \
39 HC 23 HOR 26 HOR 28 HOR 1 O2CM 3 O2CM 16 OC=C 5 OR \
9 OR 11 OR 
