#	Name:			3n76_ligand
#	Creating user name:	suminyi
#	Creation time:		Sun Sep 30 06:51:02 2018

#	Modifying user name:	suminyi
#	Modification time:	Sun Sep 30 06:51:02 2018

@<TRIPOS>MOLECULE
3n76_ligand
   39    40     1     1     0
SMALL
MMFF94_CHARGES


@<TRIPOS>ATOM
      1 O2        -37.4730  -62.7510  -52.0040 O.co2     1 MOL        -0.9000 
      2 C7        -37.4160  -61.5670  -51.7480 C.2       1 MOL         0.9060 
      3 O1        -36.3390  -61.0550  -51.4900 O.co2     1 MOL        -0.9000 
      4 C1        -38.7160  -60.7530  -51.5180 C.3       1 MOL         0.3122 
      5 O3        -38.8350  -59.5700  -52.3300 O.3       1 MOL        -0.6800 
      6 C2        -38.7620  -60.2910  -50.0870 C.2       1 MOL        -0.2882 
      7 C3        -39.8760  -60.2340  -49.3420 C.2       1 MOL        -0.1382 
      8 C4        -41.2520  -60.6400  -49.8700 C.3       1 MOL         0.4182 
      9 O4        -42.2520  -59.6740  -49.5330 O.3       1 MOL        -0.6800 
     10 C5        -41.2320  -60.7990  -51.4160 C.3       1 MOL         0.2800 
     11 O5        -42.3390  -61.5400  -51.9290 O.3       1 MOL        -0.6800 
     12 C6        -39.9770  -61.5710  -51.8590 C.3       1 MOL         0.0000 
     13 C8        -39.6960  -59.8960  -47.9430 C.2       1 MOL        -0.1500 
     14 C9        -40.4320  -60.3450  -46.9230 C.2       1 MOL        -0.2882 
     15 C10       -39.9720  -60.1070  -45.5160 C.3       1 MOL         0.4182 
     16 O11       -39.5900  -61.3510  -44.9310 O.3       1 MOL        -0.3625 
     17 C12       -38.3830  -61.4430  -44.2680 C.ar      1 MOL         0.0825 
     18 C17       -37.1790  -61.2160  -44.9410 C.ar      1 MOL        -0.1500 
     19 C16       -35.9630  -61.4310  -44.2930 C.ar      1 MOL        -0.1500 
     20 C15       -35.9530  -61.8500  -42.9650 C.ar      1 MOL        -0.1500 
     21 C14       -37.1550  -62.0190  -42.2770 C.ar      1 MOL        -0.1500 
     22 C13       -38.3670  -61.8320  -42.9350 C.ar      1 MOL        -0.1500 
     23 H1        -38.2930  -58.8350  -51.9730 H         1 MOL         0.4000 
     24 H2        -37.7930  -60.0390  -49.6570 H         1 MOL         0.1500 
     25 H3        -41.5210  -61.6010  -49.4280 H         1 MOL         0.0000 
     26 H4        -42.6540  -59.9350  -48.6500 H         1 MOL         0.4000 
     27 H5        -41.2280  -59.8010  -51.8680 H         1 MOL         0.0000 
     28 H6        -41.9980  -61.8130  -52.8060 H         1 MOL         0.4000 
     29 H7        -39.9460  -62.5430  -51.3620 H         1 MOL         0.0000 
     30 H8        -39.9830  -61.7450  -52.9370 H         1 MOL         0.0000 
     31 H9        -38.7880  -59.3270  -47.7350 H         1 MOL         0.1500 
     32 H10       -41.3060  -60.9690  -47.0610 H         1 MOL         0.1500 
     33 H11       -40.7440  -59.6400  -44.9010 H         1 MOL         0.0000 
     34 H12       -39.0750  -59.4910  -45.5490 H         1 MOL         0.0000 
     35 H13       -37.1950  -60.9550  -45.9950 H         1 MOL         0.1500 
     36 H14       -35.0300  -61.3090  -44.8350 H         1 MOL         0.1500 
     37 H15       -35.0130  -62.0640  -42.4660 H         1 MOL         0.1500 
     38 H16       -37.1640  -62.3290  -41.2360 H         1 MOL         0.1500 
     39 H17       -39.3040  -62.0320  -42.4170 H         1 MOL         0.1500 
@<TRIPOS>BOND
     1    1    2 ar   
     2    2    3 ar   
     3    2    4 1    
     4    4    5 1    
     5    4    6 1    
     6    4   12 1    
     7    6    7 2    
     8    7    8 1    
     9    7   13 1    
    10    8    9 1    
    11    8   10 1    
    12   10   11 1    
    13   10   12 1    
    14   13   14 2    
    15   14   15 1    
    16   15   16 1    
    17   16   17 1    
    18   17   18 ar   
    19   17   22 ar   
    20   18   19 ar   
    21   19   20 ar   
    22   20   21 ar   
    23   21   22 ar   
    24    5   23 1    
    25    6   24 1    
    26    8   25 1    
    27    9   26 1    
    28   10   27 1    
    29   11   28 1    
    30   12   29 1    
    31   12   30 1    
    32   13   31 1    
    33   14   32 1    
    34   15   33 1    
    35   15   34 1    
    36   18   35 1    
    37   19   36 1    
    38   20   37 1    
    39   21   38 1    
    40   22   39 1    
@<TRIPOS>SUBSTRUCTURE
     1 MOL         1 PERM              0 ****  ****    0 ROOT 
@<TRIPOS>NORMAL
@<TRIPOS>ALT_TYPE
MMFF94_ALT_TYPE_SET 
MMFF94 4 CR 8 CR 10 CR 12 CR 15 CR 17 CB 18 CB 19 CB 20 CB 21 CB 22 CB \
2 CO2M 6 C=C 7 C=C 13 C=C 14 C=C 24 HC 25 HC 27 HC 29 HC \
30 HC 31 HC 32 HC 33 HC 34 HC 35 HC 36 HC 37 HC 38 HC \
39 HC 23 HOR 26 HOR 28 HOR 1 O2CM 3 O2CM 16 OC=C 5 OR \
9 OR 11 OR 
