#	Name:			4k18_ligand
#	Creating user name:	suminyi
#	Creation time:		Sun Sep 30 06:51:10 2018

#	Modifying user name:	suminyi
#	Modification time:	Sun Sep 30 06:51:10 2018

@<TRIPOS>MOLECULE
4k18_ligand
   43    46     1     1     0
SMALL
MMFF94_CHARGES


@<TRIPOS>ATOM
      1 C1        -18.0510  -35.7050    5.6260 C.ar      1 MOL        -0.1500 
      2 C2        -18.3840  -37.0320    5.8950 C.ar      1 MOL        -0.1500 
      3 C3        -19.7210  -37.4280    5.9210 C.ar      1 MOL         0.0730 
      4 C4        -20.7240  -36.4790    5.7210 C.ar      1 MOL        -0.1500 
      5 C5        -20.3890  -35.1530    5.4410 C.ar      1 MOL        -0.1500 
      6 C6        -19.0490  -34.7570    5.3820 C.ar      1 MOL        -0.1435 
      7 C7        -18.6630  -33.3110    5.0720 C.3       1 MOL         0.2045 
      8 C8        -18.0180  -33.1280    3.7240 C.2       1 MOL         0.3746 
      9 C9        -17.0780  -32.0320    3.5790 C.2       1 MOL        -0.1356 
     10 C10       -16.4280  -31.7960    2.3820 C.2       1 MOL         0.0457 
     11 N11       -16.7800  -32.5800    1.3110 N.pl3     1 MOL         0.6006 
     12 C12       -17.6670  -33.5630    1.5350 C.2       1 MOL        -0.0256 
     13 N13       -18.3620  -33.8970    2.6710 N.2       1 MOL        -0.5760 
     14 C14       -17.7860  -34.2070    0.3520 C.2       1 MOL        -0.0860 
     15 C15       -16.9080  -33.5570   -0.5580 C.2       1 MOL         0.1388 
     16 N16       -16.3080  -32.5020    0.0340 N.2       1 MOL        -0.7068 
     17 C17       -18.5760  -35.3570   -0.0200 C.2       1 MOL         0.7160 
     18 O18       -18.4920  -35.8730   -1.1100 O.2       1 MOL        -0.5700 
     19 N19       -19.4130  -35.7790    0.9320 N.am      1 MOL        -0.5470 
     20 C20       -20.2790  -36.9020    0.9790 C.ar      1 MOL         0.1170 
     21 C21       -20.7030  -37.3150    2.2390 C.ar      1 MOL        -0.1500 
     22 C22       -21.5180  -38.4360    2.3760 C.ar      1 MOL        -0.1500 
     23 C23       -21.8980  -39.1400    1.2400 C.ar      1 MOL         0.1900 
     24 C24       -21.4830  -38.7320   -0.0190 C.ar      1 MOL        -0.1500 
     25 C25       -20.6860  -37.6030   -0.1560 C.ar      1 MOL        -0.1500 
     26 F26       -22.6300  -40.2480    1.3550 F         1 MOL        -0.1900 
     27 O27       -15.5450  -30.8240    2.1220 O.3       1 MOL        -0.5267 
     28 C28       -20.0760  -38.8180    6.0930 C.1       1 MOL         0.4841 
     29 N29       -20.3890  -39.9140    6.1670 N.1       1 MOL        -0.5571 
     30 H1        -16.9990  -35.4220    5.6140 H         1 MOL         0.1500 
     31 H2        -17.5920  -37.7530    6.1020 H         1 MOL         0.1500 
     32 H3        -21.7680  -36.7830    5.7740 H         1 MOL         0.1500 
     33 H4        -21.1840  -34.4360    5.2650 H         1 MOL         0.1500 
     34 H5        -17.9920  -32.9620    5.8610 H         1 MOL         0.0000 
     35 H6        -19.5500  -32.6810    5.1100 H         1 MOL         0.0000 
     36 H7        -16.8620  -31.4270    4.4520 H         1 MOL         0.1500 
     37 H8        -16.7000  -33.7740   -1.6010 H         1 MOL         0.1500 
     38 H9        -19.3060  -35.2890    1.8100 H         1 MOL         0.3700 
     39 H10       -20.3630  -36.7790    3.1210 H         1 MOL         0.1500 
     40 H11       -21.8190  -38.7880    3.3610 H         1 MOL         0.1500 
     41 H12       -21.7520  -39.3170   -0.8880 H         1 MOL         0.1500 
     42 H13       -20.3700  -37.3040   -1.1500 H         1 MOL         0.1500 
     43 H14       -14.6300  -31.1960    2.2860 H         1 MOL         0.4500 
@<TRIPOS>BOND
     1    1    2 ar   
     2    1    6 ar   
     3    2    3 ar   
     4    3    4 ar   
     5    3   28 1    
     6    4    5 ar   
     7    5    6 ar   
     8    6    7 1    
     9    7    8 1    
    10    8    9 1    
    11    8   13 2    
    12    9   10 2    
    13   10   11 1    
    14   10   27 1    
    15   11   12 1    
    16   11   16 1    
    17   12   13 1    
    18   12   14 2    
    19   14   15 1    
    20   14   17 1    
    21   15   16 2    
    22   17   18 2    
    23   17   19 am   
    24   19   20 1    
    25   20   21 ar   
    26   20   25 ar   
    27   21   22 ar   
    28   22   23 ar   
    29   23   24 ar   
    30   23   26 1    
    31   24   25 ar   
    32   28   29 3    
    33    1   30 1    
    34    2   31 1    
    35    4   32 1    
    36    5   33 1    
    37    7   34 1    
    38    7   35 1    
    39    9   36 1    
    40   15   37 1    
    41   19   38 1    
    42   21   39 1    
    43   22   40 1    
    44   24   41 1    
    45   25   42 1    
    46   27   43 1    
@<TRIPOS>SUBSTRUCTURE
     1 MOL         1 PERM              0 ****  ****    0 ROOT 
@<TRIPOS>NORMAL
@<TRIPOS>ALT_TYPE
MMFF94_ALT_TYPE_SET 
MMFF94 7 CR 12 C5A 14 C5B 15 C5B 1 CB 2 CB 3 CB 4 CB 5 CB 6 CB 20 CB \
21 CB 22 CB 23 CB 24 CB 25 CB 17 C=ON 8 C=N 9 C=C 10 C=C \
28 CSP 30 HC 31 HC 32 HC 33 HC 34 HC 35 HC 36 HC 37 HC \
39 HC 40 HC 41 HC 42 HC 38 HNCC 43 HOCC 18 O=CN 27 OC=C \
11 NPYL 16 N5A 29 NSP 13 N=C 19 NC=O 26 F 
