#	Name:			4pcs_ligand
#	Creating user name:	suminyi
#	Creation time:		Sun Sep 30 06:50:59 2018

#	Modifying user name:	suminyi
#	Modification time:	Sun Sep 30 06:50:59 2018

@<TRIPOS>MOLECULE
4pcs_ligand
   32    33     1     1     0
SMALL
MMFF94_CHARGES


@<TRIPOS>ATOM
      1 CAI        34.1060    9.1810   58.9170 C.ar      1 MOL        -0.1500 
      2 CAJ        34.7470    9.8030   59.9860 C.ar      1 MOL        -0.1500 
      3 CAK        34.1840    9.7540   61.2600 C.ar      1 MOL        -0.1500 
      4 CAL        32.9750    9.0870   61.4620 C.ar      1 MOL        -0.1500 
      5 CAM        32.3310    8.4690   60.3900 C.ar      1 MOL        -0.1500 
      6 CAH        32.9010    8.5090   59.1180 C.ar      1 MOL         0.0730 
      7 CAG        32.2490    7.8370   58.0260 C.1       1 MOL        -0.0730 
      8 CAF        31.6800    7.2380   57.1270 C.1       1 MOL        -0.2000 
      9 CAD        30.9720    6.4730   56.1010 C.3       1 MOL         0.7030 
     10 NAE        29.4950    6.6280   56.2930 N.4       1 MOL        -0.9060 
     11 CAA        28.9460    5.2330   56.2520 C.3       1 MOL         0.5030 
     12 CAN        27.5420    5.0980   55.6460 C.3       1 MOL         0.0000 
     13 CAB        30.0240    4.3390   55.6120 C.3       1 MOL         0.2800 
     14 OAO        30.0440    4.3840   54.1850 O.3       1 MOL        -0.6800 
     15 CAC        31.3160    4.9690   56.1530 C.3       1 MOL         0.2800 
     16 OAP        32.4640    4.6490   55.3430 O.3       1 MOL        -0.6800 
     17 H          34.5540    9.2200   57.9310 H         1 MOL         0.1500 
     18 H1         35.6900   10.3220   59.8200 H         1 MOL         0.1500 
     19 H2         34.6900   10.2380   62.0930 H         1 MOL         0.1500 
     20 H3         32.5350    9.0440   62.4560 H         1 MOL         0.1500 
     21 H4         31.3840    7.9540   60.5410 H         1 MOL         0.1500 
     22 H5         31.1940    6.8440   55.0940 H         1 MOL         0.0000 
     23 H6         29.1440    7.2390   55.5000 H         1 MOL         0.4500 
     24 H7         29.2510    7.0470   57.2180 H         1 MOL         0.4500 
     25 H8         28.8820    4.9200   57.3000 H         1 MOL         0.0000 
     26 H9         27.2210    4.0540   55.6450 H         1 MOL         0.0000 
     27 H10        27.5210    5.4730   54.6250 H         1 MOL         0.0000 
     28 H11        26.8270    5.6700   56.2420 H         1 MOL         0.0000 
     29 H12        29.9010    3.3190   55.9370 H         1 MOL         0.0000 
     30 H13        30.7350    3.7200   53.9620 H         1 MOL         0.4000 
     31 H14        31.4680    4.6560   57.1910 H         1 MOL         0.0000 
     32 H15        32.7940    3.6890   55.5440 H         1 MOL         0.4000 
@<TRIPOS>BOND
     1    1    2 ar   
     2    1    6 ar   
     3    2    3 ar   
     4    3    4 ar   
     5    4    5 ar   
     6    5    6 ar   
     7    6    7 1    
     8    7    8 3    
     9    8    9 1    
    10    9   10 1    
    11    9   15 1    
    12   10   11 1    
    13   11   12 1    
    14   11   13 1    
    15   13   14 1    
    16   13   15 1    
    17   15   16 1    
    18    1   17 1    
    19    2   18 1    
    20    3   19 1    
    21    4   20 1    
    22    5   21 1    
    23    9   22 1    
    24   10   23 1    
    25   10   24 1    
    26   11   25 1    
    27   12   26 1    
    28   12   27 1    
    29   12   28 1    
    30   13   29 1    
    31   14   30 1    
    32   15   31 1    
    33   16   32 1    
@<TRIPOS>SUBSTRUCTURE
     1 MOL         1 PERM              0 ****  ****    0 ROOT 
@<TRIPOS>NORMAL
@<TRIPOS>ALT_TYPE
MMFF94_ALT_TYPE_SET 
MMFF94 9 CR 11 CR 12 CR 13 CR 15 CR 1 CB 2 CB 3 CB 4 CB 5 CB 6 CB 7 CSP \
8 CSP 17 HC 18 HC 19 HC 20 HC 21 HC 22 HC 25 HC 26 HC \
27 HC 28 HC 29 HC 31 HC 23 HNR+ 24 HNR+ 30 HOR 32 HOR \
14 OR 16 OR 10 NR+ 
