#	Name:			4pcs_ligand
#	Creating user name:	suminyi
#	Creation time:		Sun Sep 30 06:49:00 2018

#	Modifying user name:	suminyi
#	Modification time:	Sun Sep 30 06:49:00 2018

@<TRIPOS>MOLECULE
4pcs_ligand
   32    33     1     1     0
SMALL
MMFF94_CHARGES


@<TRIPOS>ATOM
      1 CAI        34.0610    9.0040   58.6330 C.ar      1 MOL        -0.1500 
      2 CAJ        34.7610    9.7000   59.6110 C.ar      1 MOL        -0.1500 
      3 CAK        34.2070    9.7460   60.8930 C.ar      1 MOL        -0.1500 
      4 CAL        32.9820    9.1160   61.1930 C.ar      1 MOL        -0.1500 
      5 CAM        32.2910    8.4170   60.1950 C.ar      1 MOL        -0.1500 
      6 CAH        32.8380    8.3780   58.9080 C.ar      1 MOL         0.0730 
      7 CAG        32.1790    7.6410   57.8170 C.1       1 MOL        -0.0730 
      8 CAF        31.6050    7.0960   57.0270 C.1       1 MOL        -0.2000 
      9 CAD        30.9100    6.3810   55.9280 C.3       1 MOL         0.7030 
     10 NAE        29.4690    6.4910   56.2530 N.4       1 MOL        -0.9060 
     11 CAA        28.9510    5.1130   56.2260 C.3       1 MOL         0.5030 
     12 CAN        27.5180    5.0410   55.7860 C.3       1 MOL         0.0000 
     13 CAB        29.8730    4.4150   55.2840 C.3       1 MOL         0.2800 
     14 OAO        29.6340    4.9470   53.9520 O.3       1 MOL        -0.6800 
     15 CAC        31.1650    4.9070   55.8920 C.3       1 MOL         0.2800 
     16 OAP        32.3100    4.4890   55.1040 O.3       1 MOL        -0.6800 
     17 H          34.4716    8.9438   57.6316 H         1 MOL         0.1500 
     18 H          35.7022   10.1892   59.3876 H         1 MOL         0.1500 
     19 H          34.7325   10.2796   61.6767 H         1 MOL         0.1500 
     20 H          32.5748    9.1725   62.1960 H         1 MOL         0.1500 
     21 H          31.3542    7.9179   60.4148 H         1 MOL         0.1500 
     22 H          31.1577    6.8378   54.9585 H         1 MOL         0.0000 
     23 H          28.9959    7.0583   55.5671 H         1 MOL         0.4500 
     24 H          29.3444    6.8959   57.1677 H         1 MOL         0.4500 
     25 H          29.0256    4.6641   57.2274 H         1 MOL         0.0000 
     26 H          27.1870    3.9920   55.7852 H         1 MOL         0.0000 
     27 H          27.4246    5.4557   54.7715 H         1 MOL         0.0000 
     28 H          26.8920    5.6224   56.4788 H         1 MOL         0.0000 
     29 H          29.7823    3.3188   55.2927 H         1 MOL         0.0000 
     30 H          30.2112    4.5168   53.3322 H         1 MOL         0.4000 
     31 H          31.2935    4.5199   56.9136 H         1 MOL         0.0000 
     32 H          32.3359    3.5402   55.0637 H         1 MOL         0.4000 
@<TRIPOS>BOND
     1    1    2 ar   
     2    1    6 ar   
     3    2    3 ar   
     4    3    4 ar   
     5    4    5 ar   
     6    5    6 ar   
     7    6    7 1    
     8    7    8 3    
     9    8    9 1    
    10    9   10 1    
    11    9   15 1    
    12   10   11 1    
    13   11   12 1    
    14   11   13 1    
    15   13   14 1    
    16   13   15 1    
    17   15   16 1    
    18    1   17 1    
    19    2   18 1    
    20    3   19 1    
    21    4   20 1    
    22    5   21 1    
    23    9   22 1    
    24   10   23 1    
    25   10   24 1    
    26   11   25 1    
    27   12   26 1    
    28   12   27 1    
    29   12   28 1    
    30   13   29 1    
    31   14   30 1    
    32   15   31 1    
    33   16   32 1    
@<TRIPOS>SUBSTRUCTURE
     1 MOL         1 PERM              0 ****  ****    0 ROOT 
@<TRIPOS>NORMAL
@<TRIPOS>ALT_TYPE
MMFF94_ALT_TYPE_SET 
MMFF94 9 CR 11 CR 12 CR 13 CR 15 CR 1 CB 2 CB 3 CB 4 CB 5 CB 6 CB 7 CSP \
8 CSP 17 HC 18 HC 19 HC 20 HC 21 HC 22 HC 25 HC 26 HC \
27 HC 28 HC 29 HC 31 HC 23 HNR+ 24 HNR+ 30 HOR 32 HOR \
14 OR 16 OR 10 NR+ 
