#	Name:			4wiv_ligand
#	Creating user name:	suminyi
#	Creation time:		Sun Sep 30 06:51:13 2018

#	Modifying user name:	suminyi
#	Modification time:	Sun Sep 30 06:51:13 2018

@<TRIPOS>MOLECULE
4wiv_ligand
   51    54     1     1     0
SMALL
MMFF94_CHARGES


@<TRIPOS>ATOM
      1 O1         12.8490   -9.5880  -11.1030 O.3       1 MOL        -0.0191 
      2 C2         13.6010   -8.6700  -10.4200 C.2       1 MOL        -0.0400 
      3 C3         13.1480   -7.4080  -10.6390 C.2       1 MOL        -0.0540 
      4 C4         12.0410   -7.5550  -11.5230 C.2       1 MOL         0.1078 
      5 C5         11.1530   -6.4460  -12.0100 C.3       1 MOL         0.1810 
      6 C6         14.8930   -9.0700   -9.7700 C.3       1 MOL         0.1800 
      7 C8         13.6860   -6.1740  -10.1010 C.ar      1 MOL         0.0540 
      8 C13        13.7760   -5.0160  -10.8740 C.ar      1 MOL        -0.1500 
      9 C14        15.5020   -2.6170   -8.5330 C.2       1 MOL        -0.2046 
     10 C16        16.7520   -0.8310   -8.5580 C.ar      1 MOL         0.1564 
     11 C18        15.7710   -2.3010   -7.2000 C.2       1 MOL         0.3900 
     12 N1         11.8380   -8.8610  -11.7830 N.2       1 MOL        -0.4097 
     13 C9         14.1540   -6.1300   -8.7860 C.ar      1 MOL        -0.1500 
     14 C10        14.6990   -4.9610   -8.2550 C.ar      1 MOL        -0.1500 
     15 C11        14.8350   -3.8100   -9.0390 C.ar      1 MOL         0.0530 
     16 C12        14.3730   -3.8630  -10.3620 C.ar      1 MOL        -0.1500 
     17 N2         16.0680   -1.6810   -9.3920 N.pl3     1 MOL         0.0332 
     18 N3         16.5740   -1.2000   -7.2760 N.ar      1 MOL         0.0240 
     19 C25        17.6020    0.2350   -8.9820 C.ar      1 MOL         0.1600 
     20 N26        18.2140    0.9490   -8.0210 N.ar      1 MOL        -0.6200 
     21 C27        17.9880    0.6300   -6.6800 C.ar      1 MOL         0.1600 
     22 C28        17.1820   -0.4330   -6.3000 C.ar      1 MOL         0.2110 
     23 N29        15.3400   -2.8110   -5.9980 N.pl3     1 MOL        -0.8521 
     24 C30        14.0490   -2.4760   -5.3710 C.3       1 MOL         0.3691 
     25 C31        13.7170   -3.5700   -4.3340 C.3       1 MOL         0.0000 
     26 C32        14.1560   -1.1130   -4.6550 C.3       1 MOL         0.0000 
     27 C33        12.9160   -2.4110   -6.4150 C.3       1 MOL         0.0000 
     28 H          10.1710   -6.8390  -12.2790 H         1 MOL         0.0000 
     29 H2         11.5680   -5.9690  -12.9000 H         1 MOL         0.0000 
     30 H3         11.0060   -5.6840  -11.2460 H         1 MOL         0.0000 
     31 H4         15.6220   -8.2590   -9.7980 H         1 MOL         0.0000 
     32 H5         15.3320   -9.9200  -10.2970 H         1 MOL         0.0000 
     33 H6         14.7410   -9.3650   -8.7310 H         1 MOL         0.0000 
     34 H7         13.4460   -5.0170  -11.9100 H         1 MOL         0.1500 
     35 H8         14.0720   -7.0080   -8.1480 H         1 MOL         0.1500 
     36 H9         15.0580   -4.9850   -7.2310 H         1 MOL         0.1500 
     37 H10        14.4460   -3.0000  -11.0170 H         1 MOL         0.1500 
     38 H11        17.8000    0.5370  -10.0040 H         1 MOL         0.1500 
     39 H12        18.5040    1.2710   -5.9720 H         1 MOL         0.1500 
     40 H13        16.9920   -0.7230   -5.2750 H         1 MOL         0.1500 
     41 H14        15.9990   -3.3060   -5.4000 H         1 MOL         0.4000 
     42 H15        12.7690   -3.3550   -3.8340 H         1 MOL         0.0000 
     43 H16        14.4900   -3.6290   -3.5650 H         1 MOL         0.0000 
     44 H17        13.6320   -4.5490   -4.8110 H         1 MOL         0.0000 
     45 H18        13.2130   -0.8660   -4.1600 H         1 MOL         0.0000 
     46 H19        14.3810   -0.3160   -5.3650 H         1 MOL         0.0000 
     47 H20        14.9390   -1.1330   -3.8940 H         1 MOL         0.0000 
     48 H21        11.9530   -2.2270   -5.9340 H         1 MOL         0.0000 
     49 H22        12.8520   -3.3560   -6.9470 H         1 MOL         0.0000 
     50 H23        13.0850   -1.6160   -7.1420 H         1 MOL         0.0000 
     51 H1         16.0480   -1.6950  -10.4040 H         1 MOL         0.2700 
@<TRIPOS>BOND
     1    2    1 1    
     2   12    1 1    
     3    3    2 2    
     4    2    6 1    
     5    3    4 1    
     6    7    3 1    
     7    4    5 1    
     8    4   12 2    
     9    7    8 ar   
    10   13    7 ar   
    11    8   16 ar   
    12    9   11 2    
    13   15    9 1    
    14    9   17 1    
    15   17   10 1    
    16   10   18 ar   
    17   10   19 ar   
    18   11   18 1    
    19   11   23 1    
    20   14   13 ar   
    21   14   15 ar   
    22   15   16 ar   
    23   18   22 ar   
    24   19   20 ar   
    25   20   21 ar   
    26   21   22 ar   
    27   23   24 1    
    28   24   25 1    
    29   24   26 1    
    30   24   27 1    
    31    5   28 1    
    32    5   29 1    
    33    5   30 1    
    34    6   31 1    
    35    6   32 1    
    36    6   33 1    
    37    8   34 1    
    38   13   35 1    
    39   14   36 1    
    40   16   37 1    
    41   19   38 1    
    42   21   39 1    
    43   22   40 1    
    44   23   41 1    
    45   25   42 1    
    46   25   43 1    
    47   25   44 1    
    48   26   45 1    
    49   26   46 1    
    50   26   47 1    
    51   27   48 1    
    52   27   49 1    
    53   27   50 1    
    54   17   51 1    
@<TRIPOS>SUBSTRUCTURE
     1 MOL         1 PERM              0 ****  ****    0 ROOT 
@<TRIPOS>NORMAL
@<TRIPOS>ALT_TYPE
MMFF94_ALT_TYPE_SET 
MMFF94 5 CR 6 CR 24 CR 25 CR 26 CR 27 CR 9 C5A 2 C5A 10 C5A 11 C5B 3 C5B \
4 C5B 7 CB 8 CB 13 CB 14 CB 15 CB 16 CB 19 CB 21 CB 22 CB \
28 HC 29 HC 30 HC 31 HC 32 HC 33 HC 34 HC 35 HC 36 HC \
37 HC 38 HC 39 HC 40 HC 42 HC 43 HC 44 HC 45 HC 46 HC \
47 HC 48 HC 49 HC 50 HC 51 HPYL 41 HNCC 1 OFUR 20 NPYD \
18 NPD+ 17 NPYL 12 N5A 23 NC=N 
