#	Name:			4wiv_ligand
#	Creating user name:	suminyi
#	Creation time:		Sun Sep 30 06:48:45 2018

#	Modifying user name:	suminyi
#	Modification time:	Sun Sep 30 06:48:45 2018

@<TRIPOS>MOLECULE
4wiv_ligand
   51    54     1     1     0
SMALL
MMFF94_CHARGES


@<TRIPOS>ATOM
      1 O1         12.6810   -9.4940  -11.1000 O.3       1 MOL        -0.0191 
      2 C2         13.5650   -8.6740  -10.4850 C.2       1 MOL        -0.0400 
      3 C3         13.0580   -7.3150  -10.6600 C.2       1 MOL        -0.0540 
      4 C4         11.7900   -7.4880  -11.4130 C.2       1 MOL         0.1078 
      5 C5         10.8680   -6.3820  -11.8380 C.3       1 MOL         0.1810 
      6 C6         14.7930   -9.2550   -9.8500 C.3       1 MOL         0.1800 
      7 C8         13.6880   -6.0850  -10.1280 C.ar      1 MOL         0.0540 
      8 C13        13.8590   -4.9750  -10.9380 C.ar      1 MOL        -0.1500 
      9 C14        15.5270   -2.6110   -8.5600 C.2       1 MOL        -0.2046 
     10 C16        16.7990   -0.8060   -8.5330 C.ar      1 MOL         0.1564 
     11 C18        15.8380   -2.1850   -7.1830 C.2       1 MOL         0.3900 
     12 N1         11.6400   -8.8270  -11.6530 N.2       1 MOL        -0.4097 
     13 C9         14.1150   -6.0750   -8.8020 C.ar      1 MOL        -0.1500 
     14 C10        14.7080   -4.9350   -8.2870 C.ar      1 MOL        -0.1500 
     15 C11        14.8270   -3.8010   -9.0860 C.ar      1 MOL         0.0530 
     16 C12        14.4470   -3.8250  -10.4190 C.ar      1 MOL        -0.1500 
     17 N2         16.1800   -1.7200   -9.3260 N.pl3     1 MOL         0.0332 
     18 N3         16.5890   -1.0860   -7.2240 N.ar      1 MOL         0.0240 
     19 C25        17.5730    0.2910   -8.9010 C.ar      1 MOL         0.1600 
     20 N26        18.0950    1.0790   -7.9550 N.ar      1 MOL        -0.6200 
     21 C27        17.8810    0.7950   -6.6630 C.ar      1 MOL         0.1600 
     22 C28        17.1190   -0.2970   -6.2810 C.ar      1 MOL         0.2110 
     23 N29        15.3760   -2.7750   -6.0420 N.pl3     1 MOL        -0.8521 
     24 C30        14.1060   -2.4050   -5.4180 C.3       1 MOL         0.3691 
     25 C31        13.7780   -3.3970   -4.3020 C.3       1 MOL         0.0000 
     26 C32        14.1610   -1.0010   -4.8240 C.3       1 MOL         0.0000 
     27 C33        12.9730   -2.4200   -6.4390 C.3       1 MOL         0.0000 
     28 H          10.0096   -6.8076  -12.3784 H         1 MOL         0.0000 
     29 H          11.4085   -5.6871  -12.4975 H         1 MOL         0.0000 
     30 H          10.5103   -5.8411  -10.9495 H         1 MOL         0.0000 
     31 H          15.3909   -8.4477   -9.4018 H         1 MOL         0.0000 
     32 H          15.3909   -9.7731  -10.6143 H         1 MOL         0.0000 
     33 H          14.4981   -9.9702   -9.0681 H         1 MOL         0.0000 
     34 H          13.5361   -5.0015  -11.9725 H         1 MOL         0.1500 
     35 H          13.9841   -6.9523   -8.1789 H         1 MOL         0.1500 
     36 H          15.0774   -4.9253   -7.2679 H         1 MOL         0.1500 
     37 H          14.6060   -2.9580  -11.0500 H         1 MOL         0.1500 
     38 H          17.7516    0.5053   -9.9485 H         1 MOL         0.1500 
     39 H          18.3132    1.4332   -5.9008 H         1 MOL         0.1500 
     40 H          16.9538   -0.5102   -5.2311 H         1 MOL         0.1500 
     41 H          15.9457   -3.5117   -5.6020 H         1 MOL         0.4000 
     42 H          12.8228   -3.1185   -3.8329 H         1 MOL         0.0000 
     43 H          14.5772   -3.3764   -3.5465 H         1 MOL         0.0000 
     44 H          13.6978   -4.4098   -4.7235 H         1 MOL         0.0000 
     45 H          13.1911   -0.7588   -4.3651 H         1 MOL         0.0000 
     46 H          14.3816   -0.2745   -5.6199 H         1 MOL         0.0000 
     47 H          14.9498   -0.9573   -4.0586 H         1 MOL         0.0000 
     48 H          12.0310   -2.1388   -5.9455 H         1 MOL         0.0000 
     49 H          12.8766   -3.4296   -6.8650 H         1 MOL         0.0000 
     50 H          13.1942   -1.7024   -7.2428 H         1 MOL         0.0000 
     51 H1         16.2071   -1.7286  -10.3556 H         1 MOL         0.2700 
@<TRIPOS>BOND
     1    2    1 1    
     2   12    1 1    
     3    3    2 2    
     4    2    6 1    
     5    3    4 1    
     6    7    3 1    
     7    4    5 1    
     8    4   12 2    
     9    7    8 ar   
    10   13    7 ar   
    11    8   16 ar   
    12    9   11 2    
    13   15    9 1    
    14    9   17 1    
    15   17   10 1    
    16   10   18 ar   
    17   10   19 ar   
    18   11   18 1    
    19   11   23 1    
    20   14   13 ar   
    21   14   15 ar   
    22   15   16 ar   
    23   18   22 ar   
    24   19   20 ar   
    25   20   21 ar   
    26   21   22 ar   
    27   23   24 1    
    28   24   25 1    
    29   24   26 1    
    30   24   27 1    
    31    5   28 1    
    32    5   29 1    
    33    5   30 1    
    34    6   31 1    
    35    6   32 1    
    36    6   33 1    
    37    8   34 1    
    38   13   35 1    
    39   14   36 1    
    40   16   37 1    
    41   19   38 1    
    42   21   39 1    
    43   22   40 1    
    44   23   41 1    
    45   25   42 1    
    46   25   43 1    
    47   25   44 1    
    48   26   45 1    
    49   26   46 1    
    50   26   47 1    
    51   27   48 1    
    52   27   49 1    
    53   27   50 1    
    54   17   51 1    
@<TRIPOS>SUBSTRUCTURE
     1 MOL         1 PERM              0 ****  ****    0 ROOT 
@<TRIPOS>NORMAL
@<TRIPOS>ALT_TYPE
MMFF94_ALT_TYPE_SET 
MMFF94 5 CR 6 CR 24 CR 25 CR 26 CR 27 CR 9 C5A 2 C5A 10 C5A 11 C5B 3 C5B \
4 C5B 7 CB 8 CB 13 CB 14 CB 15 CB 16 CB 19 CB 21 CB 22 CB \
28 HC 29 HC 30 HC 31 HC 32 HC 33 HC 34 HC 35 HC 36 HC \
37 HC 38 HC 39 HC 40 HC 42 HC 43 HC 44 HC 45 HC 46 HC \
47 HC 48 HC 49 HC 50 HC 51 HPYL 41 HNCC 1 OFUR 20 NPYD \
18 NPD+ 17 NPYL 12 N5A 23 NC=N 
