#	Name:			2yge_ligand
#	Creating user name:	suminyi
#	Creation time:		Sun Sep 30 06:50:57 2018

#	Modifying user name:	suminyi
#	Modification time:	Sun Sep 30 06:50:58 2018

@<TRIPOS>MOLECULE
2yge_ligand
   80    81     1     1     0
SMALL
MMFF94_CHARGES


@<TRIPOS>ATOM
      1 C1         26.0450  -34.1290   -5.1350 C.2       1 MOL        -0.1238 
      2 C2         26.0670  -34.0410   -3.6630 C.2       1 MOL         0.5412 
      3 C3         25.6540  -32.7090   -3.1490 C.2       1 MOL         0.1234 
      4 C4         25.4250  -31.6230   -3.9550 C.2       1 MOL        -0.1356 
      5 C5         25.5240  -31.6960   -5.4110 C.2       1 MOL         0.5412 
      6 C6         25.8260  -33.0460   -5.9660 C.2       1 MOL         0.0911 
      7 C7         26.1300  -35.5380   -5.6740 C.3       1 MOL         0.1382 
      8 C8         24.7360  -36.2140   -5.5570 C.3       1 MOL         0.0000 
      9 C9         24.0310  -36.3420   -6.9360 C.3       1 MOL         0.0000 
     10 C10        22.6470  -37.0660   -6.8480 C.3       1 MOL         0.2800 
     11 C11        21.5790  -36.5940   -7.8800 C.3       1 MOL         0.2800 
     12 C12        21.0770  -35.1520   -7.5820 C.3       1 MOL         0.1382 
     13 C13        20.3900  -35.0540   -6.2270 C.2       1 MOL        -0.2882 
     14 C14        20.4130  -34.0160   -5.3910 C.2       1 MOL        -0.2764 
     15 C15        19.5520  -34.0320   -4.1290 C.3       1 MOL         0.4182 
     16 C16        20.4090  -34.0450   -2.8350 C.3       1 MOL         0.4182 
     17 C17        21.1380  -35.3750   -2.6790 C.2       1 MOL        -0.2882 
     18 C18        22.4050  -35.5440   -2.2680 C.2       1 MOL        -0.1500 
     19 C19        23.3270  -34.4620   -1.9700 C.2       1 MOL        -0.1500 
     20 C20        24.3130  -34.4600   -1.0520 C.2       1 MOL        -0.1238 
     21 C21        25.1580  -33.2650   -0.7970 C.2       1 MOL         0.6156 
     22 N22        25.5100  -32.4420   -1.7960 N.am      1 MOL        -0.5390 
     23 O23        26.3930  -34.9760   -2.9520 O.2       1 MOL        -0.5700 
     24 O24        25.3790  -30.6850   -6.0620 O.2       1 MOL        -0.5700 
     25 O25        25.9210  -33.2820   -7.3290 O.3       1 MOL        -0.3567 
     26 C26        26.0720  -32.2320   -8.3060 C.3       1 MOL         0.2800 
     27 C27        24.8760  -37.5560   -4.8270 C.3       1 MOL         0.0000 
     28 O28        22.7540  -38.5280   -6.8920 O.3       1 MOL        -0.5600 
     29 C29        23.6240  -39.1810   -7.8540 C.3       1 MOL         0.2800 
     30 O30        22.0850  -36.6860   -9.2210 O.3       1 MOL        -0.6800 
     31 C31        20.0410  -34.6840   -8.6150 C.3       1 MOL         0.0000 
     32 C32        21.2010  -32.7290   -5.6310 C.3       1 MOL         0.1382 
     33 O33        18.6750  -32.8690   -4.1550 O.3       1 MOL        -0.4300 
     34 C34        17.4690  -33.0100   -4.7310 C.2       1 MOL         0.7800 
     35 O35        16.9640  -34.0330   -5.1440 O.2       1 MOL        -0.5700 
     36 N36        16.8440  -31.8480   -4.7450 N.am      1 MOL        -0.8000 
     37 O37        19.6100  -33.8210   -1.6290 O.3       1 MOL        -0.5600 
     38 C38        18.4950  -34.7150   -1.3850 C.3       1 MOL         0.2800 
     39 C39        24.5440  -35.6510   -0.1370 C.3       1 MOL         0.1382 
     40 O40        25.4400  -32.9100    0.3210 O.2       1 MOL        -0.5700 
     41 H1         25.1360  -30.6430   -3.5840 H         1 MOL         0.1500 
     42 H2         26.8790  -36.1050   -5.1140 H         1 MOL         0.0000 
     43 H3         26.4840  -35.5670   -6.7060 H         1 MOL         0.0000 
     44 H4         24.0880  -35.5940   -4.9300 H         1 MOL         0.0000 
     45 H5         24.6870  -36.8290   -7.6580 H         1 MOL         0.0000 
     46 H6         23.8890  -35.3310   -7.3190 H         1 MOL         0.0000 
     47 H7         22.2270  -36.8390   -5.8660 H         1 MOL         0.0000 
     48 H8         20.7190  -37.2660   -7.7970 H         1 MOL         0.0000 
     49 H9         21.9260  -34.4740   -7.6500 H         1 MOL         0.0000 
     50 H10        19.7640  -35.9120   -5.9830 H         1 MOL         0.1500 
     51 H11        18.9400  -34.9380   -4.1170 H         1 MOL         0.0000 
     52 H12        21.1150  -33.2180   -2.8980 H         1 MOL         0.0000 
     53 H13        20.5400  -36.2550   -2.8960 H         1 MOL         0.1500 
     54 H14        22.8040  -36.5510   -2.1390 H         1 MOL         0.1500 
     55 H15        23.1610  -33.5450   -2.5350 H         1 MOL         0.1500 
     56 H16        25.7490  -31.5200   -1.4940 H         1 MOL         0.3700 
     57 H17        26.2030  -32.6960   -9.2810 H         1 MOL         0.0000 
     58 H18        26.9520  -31.6310   -8.0630 H         1 MOL         0.0000 
     59 H19        25.1840  -31.6000   -8.3170 H         1 MOL         0.0000 
     60 H20        25.3270  -37.4180   -3.8410 H         1 MOL         0.0000 
     61 H21        25.5010  -38.2370   -5.4060 H         1 MOL         0.0000 
     62 H22        23.8970  -38.0050   -4.6760 H         1 MOL         0.0000 
     63 H23        23.3930  -40.2490   -7.8670 H         1 MOL         0.0000 
     64 H24        24.6670  -39.0520   -7.5520 H         1 MOL         0.0000 
     65 H25        23.4740  -38.7700   -8.8540 H         1 MOL         0.0000 
     66 H26        22.0590  -37.6390   -9.4350 H         1 MOL         0.4000 
     67 H27        19.7840  -33.6460   -8.4080 H         1 MOL         0.0000 
     68 H28        19.1340  -35.2890   -8.5570 H         1 MOL         0.0000 
     69 H29        20.4390  -34.7390   -9.6240 H         1 MOL         0.0000 
     70 H30        21.6560  -32.6690   -6.6190 H         1 MOL         0.0000 
     71 H31        21.9990  -32.6140   -4.8960 H         1 MOL         0.0000 
     72 H32        20.5530  -31.8590   -5.5470 H         1 MOL         0.0000 
     73 H33        15.9000  -31.7780   -5.1260 H         1 MOL         0.3700 
     74 H34        17.3280  -31.0300   -4.4480 H         1 MOL         0.3700 
     75 H35        18.0650  -34.4820   -0.4090 H         1 MOL         0.0000 
     76 H36        18.8360  -35.7530   -1.3850 H         1 MOL         0.0000 
     77 H37        17.7330  -34.5730   -2.1560 H         1 MOL         0.0000 
     78 H38        24.4880  -36.5980   -0.6770 H         1 MOL         0.0000 
     79 H39        23.8140  -35.6750    0.6740 H         1 MOL         0.0000 
     80 H40        25.5390  -35.6130    0.3140 H         1 MOL         0.0000 
@<TRIPOS>BOND
     1    1    2 1    
     2    1    6 2    
     3    1    7 1    
     4    2    3 1    
     5    2   23 2    
     6    3    4 2    
     7    3   22 1    
     8    4    5 1    
     9    5    6 1    
    10    5   24 2    
    11    6   25 1    
    12    7    8 1    
    13    8    9 1    
    14    8   27 1    
    15    9   10 1    
    16   10   11 1    
    17   10   28 1    
    18   11   12 1    
    19   11   30 1    
    20   12   13 1    
    21   12   31 1    
    22   13   14 2    
    23   14   15 1    
    24   14   32 1    
    25   15   16 1    
    26   15   33 1    
    27   16   17 1    
    28   16   37 1    
    29   17   18 2    
    30   18   19 1    
    31   19   20 2    
    32   20   21 1    
    33   20   39 1    
    34   21   22 am   
    35   21   40 2    
    36   25   26 1    
    37   28   29 1    
    38   33   34 1    
    39   34   35 2    
    40   34   36 am   
    41   37   38 1    
    42    4   41 1    
    43    7   42 1    
    44    7   43 1    
    45    8   44 1    
    46    9   45 1    
    47    9   46 1    
    48   10   47 1    
    49   11   48 1    
    50   12   49 1    
    51   13   50 1    
    52   15   51 1    
    53   16   52 1    
    54   17   53 1    
    55   18   54 1    
    56   19   55 1    
    57   22   56 1    
    58   26   57 1    
    59   26   58 1    
    60   26   59 1    
    61   27   60 1    
    62   27   61 1    
    63   27   62 1    
    64   29   63 1    
    65   29   64 1    
    66   29   65 1    
    67   30   66 1    
    68   31   67 1    
    69   31   68 1    
    70   31   69 1    
    71   32   70 1    
    72   32   71 1    
    73   32   72 1    
    74   36   73 1    
    75   36   74 1    
    76   38   75 1    
    77   38   76 1    
    78   38   77 1    
    79   39   78 1    
    80   39   79 1    
    81   39   80 1    
@<TRIPOS>SUBSTRUCTURE
     1 MOL         1 PERM              0 ****  ****    0 ROOT 
@<TRIPOS>NORMAL
@<TRIPOS>ALT_TYPE
MMFF94_ALT_TYPE_SET 
MMFF94 7 CR 8 CR 9 CR 10 CR 11 CR 12 CR 15 CR 16 CR 26 CR 27 CR 29 CR \
31 CR 32 CR 38 CR 39 CR 34 COO 21 C=ON 2 C=OR 5 C=OR \
1 C=C 3 C=C 4 C=C 6 C=C 13 C=C 14 C=C 17 C=C 18 C=C \
19 C=C 20 C=C 41 HC 42 HC 43 HC 44 HC 45 HC 46 HC 47 HC \
48 HC 49 HC 50 HC 51 HC 52 HC 53 HC 54 HC 55 HC 57 HC \
58 HC 59 HC 60 HC 61 HC 62 HC 63 HC 64 HC 65 HC 67 HC \
68 HC 69 HC 70 HC 71 HC 72 HC 75 HC 76 HC 77 HC 78 HC \
79 HC 80 HC 56 HNCC 73 HNCO 74 HNCO 66 HOR 40 O=CN 35 O=CN \
23 O=CR 24 O=CR 33 OC=O 25 OC=C 28 OR 30 OR 37 OR 22 NC=O \
36 NC=O
