#	Name:			2p15_ligand
#	Creating user name:	suminyi
#	Creation time:		Sun Sep 30 06:49:07 2018

#	Modifying user name:	suminyi
#	Modification time:	Sun Sep 30 06:49:07 2018

@<TRIPOS>MOLECULE
2p15_ligand
   61    65     1     1     0
SMALL
MMFF94_CHARGES


@<TRIPOS>ATOM
      1 C18       -36.7690    1.4740   21.4410 C.3       1 EZT         0.0000 
      2 C13       -36.7330    2.9750   21.0600 C.3       1 EZT         0.0000 
      3 C12       -36.4740    3.0800   19.5290 C.3       1 EZT         0.0000 
      4 C11       -35.0260    2.6480   19.1350 C.3       1 EZT         0.0000 
      5 C9        -33.9710    3.4520   19.9770 C.3       1 EZT         0.1435 
      6 C10       -32.4930    3.2460   19.5510 C.ar      1 EZT        -0.1435 
      7 C1        -32.1850    3.0220   18.2180 C.ar      1 EZT        -0.1500 
      8 C2        -30.8480    2.8710   17.8490 C.ar      1 EZT        -0.1500 
      9 C3        -29.8390    2.9430   18.8160 C.ar      1 EZT         0.0825 
     10 O3        -28.5390    2.7850   18.4800 O.3       1 EZT        -0.5325 
     11 C4        -30.1470    3.1670   20.1440 C.ar      1 EZT        -0.1500 
     12 C5        -31.4690    3.3480   20.5160 C.ar      1 EZT        -0.1435 
     13 C6        -31.7280    3.5610   22.0260 C.3       1 EZT         0.1435 
     14 C7        -33.1350    4.1440   22.2660 C.3       1 EZT         0.0000 
     15 C8        -34.1850    3.2790   21.5130 C.3       1 EZT         0.0000 
     16 C14       -35.6350    3.7630   21.8190 C.3       1 EZT         0.0000 
     17 C15       -36.1520    3.7540   23.2820 C.3       1 EZT         0.0000 
     18 C16       -37.6710    3.9290   23.1000 C.3       1 EZT         0.0000 
     19 C17       -37.9770    3.7810   21.5860 C.3       1 EZT         0.4182 
     20 O17       -39.2210    3.0820   21.3760 O.3       1 EZT        -0.6800 
     21 C19       -38.0230    5.0580   20.9440 C.2       1 EZT        -0.2882 
     22 C20       -37.7730    6.3080   21.5410 C.2       1 EZT        -0.1784 
     23 C21       -37.7500    7.5330   20.8310 C.ar      1 EZT         0.0284 
     24 C22       -38.6210    7.7700   19.7630 C.ar      1 EZT        -0.1500 
     25 C23       -38.5550    8.9770   19.0450 C.ar      1 EZT        -0.1500 
     26 C24       -37.6220    9.9690   19.3950 C.ar      1 EZT        -0.1500 
     27 C25       -36.7400    9.7390   20.4450 C.ar      1 EZT        -0.1500 
     28 C26       -36.7980    8.5310   21.1620 C.ar      1 EZT        -0.1435 
     29 C27       -35.7960    8.3650   22.3380 C.3       1 EZT         1.1635 
     30 F02       -34.9920    9.4060   22.3590 F         1 EZT        -0.3400 
     31 F03       -36.3940    8.3520   23.5370 F         1 EZT        -0.3400 
     32 F01       -35.0690    7.2540   22.2500 F         1 EZT        -0.3400 
     33 H1        -35.8739    0.9733   21.0435 H         1 EZT         0.0000 
     34 H2        -37.6695    1.0087   21.0138 H         1 EZT         0.0000 
     35 H3        -36.7891    1.3741   22.5363 H         1 EZT         0.0000 
     36 H4        -36.6280    4.1233   19.2162 H         1 EZT         0.0000 
     37 H5        -37.1905    2.4304   19.0049 H         1 EZT         0.0000 
     38 H6        -34.8656    2.8481   18.0653 H         1 EZT         0.0000 
     39 H7        -34.9023    1.5724   19.3294 H         1 EZT         0.0000 
     40 H8        -34.1832    4.5106   19.7667 H         1 EZT         0.0000 
     41 H9        -32.9710    2.9650   17.4737 H         1 EZT         0.1500 
     42 H10       -30.5901    2.6975   16.8105 H         1 EZT         0.1500 
     43 H11       -28.0000    2.8649   19.2582 H         1 EZT         0.4500 
     44 H12       -29.3603    3.2009   20.8890 H         1 EZT         0.1500 
     45 H13       -30.9765    4.2579   22.4255 H         1 EZT         0.0000 
     46 H14       -31.6451    2.5949   22.5454 H         1 EZT         0.0000 
     47 H15       -33.1734    5.1774   21.8911 H         1 EZT         0.0000 
     48 H16       -33.3571    4.1362   23.3433 H         1 EZT         0.0000 
     49 H17       -34.0705    2.2239   21.8021 H         1 EZT         0.0000 
     50 H18       -35.6632    4.8075   21.4751 H         1 EZT         0.0000 
     51 H19       -35.7227    4.5853   23.8604 H         1 EZT         0.0000 
     52 H20       -35.9185    2.8015   23.7802 H         1 EZT         0.0000 
     53 H21       -37.9794    4.9251   23.4502 H         1 EZT         0.0000 
     54 H22       -38.2093    3.1571   23.6695 H         1 EZT         0.0000 
     55 H23       -39.3858    3.0042   20.4437 H         1 EZT         0.4000 
     56 H24       -38.2774    5.0640   19.8851 H         1 EZT         0.1500 
     57 H25       -37.5860    6.3346   22.6135 H         1 EZT         0.1500 
     58 H26       -39.3517    7.0184   19.4869 H         1 EZT         0.1500 
     59 H27       -39.2300    9.1445   18.2135 H         1 EZT         0.1500 
     60 H28       -37.5906   10.9058   18.8505 H         1 EZT         0.1500 
     61 H29       -36.0069   10.4919   20.7111 H         1 EZT         0.1500 
@<TRIPOS>BOND
     1    1    2 1    
     2    2    3 1    
     3    2   16 1    
     4    2   19 1    
     5    3    4 1    
     6    4    5 1    
     7    5    6 1    
     8    5   15 1    
     9    6    7 ar   
    10    6   12 ar   
    11    7    8 ar   
    12    8    9 ar   
    13    9   10 1    
    14    9   11 ar   
    15   11   12 ar   
    16   12   13 1    
    17   13   14 1    
    18   14   15 1    
    19   15   16 1    
    20   16   17 1    
    21   17   18 1    
    22   18   19 1    
    23   19   20 1    
    24   19   21 1    
    25   21   22 2    
    26   22   23 1    
    27   23   24 ar   
    28   23   28 ar   
    29   24   25 ar   
    30   25   26 ar   
    31   26   27 ar   
    32   27   28 ar   
    33   28   29 1    
    34   29   30 1    
    35   29   31 1    
    36   29   32 1    
    37    1   33 1    
    38    1   34 1    
    39    1   35 1    
    40    3   36 1    
    41    3   37 1    
    42    4   38 1    
    43    4   39 1    
    44    5   40 1    
    45    7   41 1    
    46    8   42 1    
    47   10   43 1    
    48   11   44 1    
    49   13   45 1    
    50   13   46 1    
    51   14   47 1    
    52   14   48 1    
    53   15   49 1    
    54   16   50 1    
    55   17   51 1    
    56   17   52 1    
    57   18   53 1    
    58   18   54 1    
    59   20   55 1    
    60   21   56 1    
    61   22   57 1    
    62   24   58 1    
    63   25   59 1    
    64   26   60 1    
    65   27   61 1    
@<TRIPOS>SUBSTRUCTURE
     1 EZT         1 PERM              0 ****  ****    0 ROOT 
@<TRIPOS>NORMAL
@<TRIPOS>ALT_TYPE
MMFF94_ALT_TYPE_SET 
MMFF94 1 CR 2 CR 3 CR 4 CR 5 CR 13 CR 14 CR 15 CR 16 CR 17 CR 18 CR \
19 CR 29 CR 6 CB 7 CB 8 CB 9 CB 11 CB 12 CB 23 CB 24 CB \
25 CB 26 CB 27 CB 28 CB 21 C=C 22 C=C 33 HC 34 HC 35 HC \
36 HC 37 HC 38 HC 39 HC 40 HC 41 HC 42 HC 44 HC 45 HC \
46 HC 47 HC 48 HC 49 HC 50 HC 51 HC 52 HC 53 HC 54 HC \
56 HC 57 HC 58 HC 59 HC 60 HC 61 HC 43 HOCC 55 HOR 10 OC=C \
20 OR 30 F 31 F 32 F 
