#	Name:			2p15_ligand
#	Creating user name:	suminyi
#	Creation time:		Sun Sep 30 06:51:11 2018

#	Modifying user name:	suminyi
#	Modification time:	Sun Sep 30 06:51:11 2018

@<TRIPOS>MOLECULE
2p15_ligand
   61    65     1     1     0
SMALL
MMFF94_CHARGES


@<TRIPOS>ATOM
      1 C18       -36.7510    1.5200   21.4400 C.3       1 MOL         0.0000 
      2 C13       -36.6880    3.0430   21.0710 C.3       1 MOL         0.0000 
      3 C12       -36.4030    3.1540   19.5450 C.3       1 MOL         0.0000 
      4 C11       -34.9570    2.6870   19.1980 C.3       1 MOL         0.0000 
      5 C9        -33.8930    3.4910   20.0050 C.3       1 MOL         0.1435 
      6 C10       -32.4240    3.2560   19.6140 C.ar      1 MOL        -0.1435 
      7 C1        -32.0620    3.0500   18.2760 C.ar      1 MOL        -0.1500 
      8 C2        -30.7240    2.9170   17.9130 C.ar      1 MOL        -0.1500 
      9 C3        -29.7230    3.0300   18.8680 C.ar      1 MOL         0.0825 
     10 O3        -28.4160    2.8810   18.5230 O.3       1 MOL        -0.5325 
     11 C4        -30.0640    3.2740   20.1890 C.ar      1 MOL        -0.1500 
     12 C5        -31.4010    3.3690   20.5740 C.ar      1 MOL        -0.1435 
     13 C6        -31.6960    3.5520   22.0540 C.3       1 MOL         0.1435 
     14 C7        -33.1010    4.1000   22.3380 C.3       1 MOL         0.0000 
     15 C8        -34.1460    3.3030   21.5310 C.3       1 MOL         0.0000 
     16 C14       -35.5800    3.7900   21.8430 C.3       1 MOL         0.0000 
     17 C15       -36.0910    3.8210   23.2980 C.3       1 MOL         0.0000 
     18 C16       -37.6390    3.8830   23.1510 C.3       1 MOL         0.0000 
     19 C17       -37.9500    3.7950   21.6260 C.3       1 MOL         0.4182 
     20 O17       -39.1400    3.0320   21.4330 O.3       1 MOL        -0.6800 
     21 C19       -38.1580    5.1690   20.9760 C.2       1 MOL        -0.2882 
     22 C20       -37.6210    6.3270   21.4240 C.2       1 MOL        -0.1784 
     23 C21       -37.6110    7.6510   20.7370 C.ar      1 MOL         0.0284 
     24 C22       -38.4560    7.8720   19.6440 C.ar      1 MOL        -0.1500 
     25 C23       -38.3880    9.0530   18.9110 C.ar      1 MOL        -0.1500 
     26 C24       -37.4670   10.0310   19.2490 C.ar      1 MOL        -0.1500 
     27 C25       -36.6290    9.8340   20.3360 C.ar      1 MOL        -0.1500 
     28 C26       -36.7020    8.6680   21.1120 C.ar      1 MOL        -0.1435 
     29 C27       -35.7350    8.5250   22.2980 C.3       1 MOL         1.1635 
     30 F02       -34.8780    9.5530   22.4300 F         1 MOL        -0.3400 
     31 F03       -36.3790    8.4350   23.4760 F         1 MOL        -0.3400 
     32 F01       -34.9540    7.4310   22.2020 F         1 MOL        -0.3400 
     33 H1        -35.8070    1.0030   21.2710 H         1 MOL         0.0000 
     34 H2        -37.5010    1.0250   20.8230 H         1 MOL         0.0000 
     35 H3        -37.0250    1.3470   22.4820 H         1 MOL         0.0000 
     36 H4        -36.5120    4.1870   19.2120 H         1 MOL         0.0000 
     37 H5        -37.1290    2.5640   18.9810 H         1 MOL         0.0000 
     38 H6        -34.8140    2.8170   18.1280 H         1 MOL         0.0000 
     39 H7        -34.8340    1.6190   19.3850 H         1 MOL         0.0000 
     40 H8        -34.0790    4.5410   19.7700 H         1 MOL         0.0000 
     41 H9        -32.8100    2.9880   17.4910 H         1 MOL         0.1500 
     42 H10       -30.4660    2.7190   16.8750 H         1 MOL         0.1500 
     43 H11       -28.3830    2.3060   17.6630 H         1 MOL         0.4500 
     44 H12       -29.2770    3.3430   20.9320 H         1 MOL         0.1500 
     45 H13       -30.9560    4.2180   22.5020 H         1 MOL         0.0000 
     46 H14       -31.5880    2.5810   22.5430 H         1 MOL         0.0000 
     47 H15       -33.1450    5.1580   22.0690 H         1 MOL         0.0000 
     48 H16       -33.3020    4.0250   23.4070 H         1 MOL         0.0000 
     49 H17       -34.0450    2.2470   21.7720 H         1 MOL         0.0000 
     50 H18       -35.5730    4.8250   21.5030 H         1 MOL         0.0000 
     51 H19       -35.7030    4.6900   23.8340 H         1 MOL         0.0000 
     52 H20       -35.7970    2.9150   23.8330 H         1 MOL         0.0000 
     53 H21       -38.0630    4.7800   23.6070 H         1 MOL         0.0000 
     54 H22       -38.0860    3.0330   23.6690 H         1 MOL         0.0000 
     55 H23       -39.8830    3.5410   21.8650 H         1 MOL         0.4000 
     56 H24       -38.6990    5.1320   20.0360 H         1 MOL         0.1500 
     57 H25       -37.0460    6.3070   22.3420 H         1 MOL         0.1500 
     58 H26       -39.1670    7.1120   19.3380 H         1 MOL         0.1500 
     59 H27       -39.0190    9.2000   18.0450 H         1 MOL         0.1500 
     60 H28       -37.3870   10.9360   18.6520 H         1 MOL         0.1500 
     61 H29       -35.8890   10.5980   20.5550 H         1 MOL         0.1500 
@<TRIPOS>BOND
     1    1    2 1    
     2    2    3 1    
     3    2   16 1    
     4    2   19 1    
     5    3    4 1    
     6    4    5 1    
     7    5    6 1    
     8    5   15 1    
     9    6    7 ar   
    10    6   12 ar   
    11    7    8 ar   
    12    8    9 ar   
    13    9   10 1    
    14    9   11 ar   
    15   11   12 ar   
    16   12   13 1    
    17   13   14 1    
    18   14   15 1    
    19   15   16 1    
    20   16   17 1    
    21   17   18 1    
    22   18   19 1    
    23   19   20 1    
    24   19   21 1    
    25   21   22 2    
    26   22   23 1    
    27   23   24 ar   
    28   23   28 ar   
    29   24   25 ar   
    30   25   26 ar   
    31   26   27 ar   
    32   27   28 ar   
    33   28   29 1    
    34   29   30 1    
    35   29   31 1    
    36   29   32 1    
    37    1   33 1    
    38    1   34 1    
    39    1   35 1    
    40    3   36 1    
    41    3   37 1    
    42    4   38 1    
    43    4   39 1    
    44    5   40 1    
    45    7   41 1    
    46    8   42 1    
    47   10   43 1    
    48   11   44 1    
    49   13   45 1    
    50   13   46 1    
    51   14   47 1    
    52   14   48 1    
    53   15   49 1    
    54   16   50 1    
    55   17   51 1    
    56   17   52 1    
    57   18   53 1    
    58   18   54 1    
    59   20   55 1    
    60   21   56 1    
    61   22   57 1    
    62   24   58 1    
    63   25   59 1    
    64   26   60 1    
    65   27   61 1    
@<TRIPOS>SUBSTRUCTURE
     1 MOL         1 PERM              0 ****  ****    0 ROOT 
@<TRIPOS>NORMAL
@<TRIPOS>ALT_TYPE
MMFF94_ALT_TYPE_SET 
MMFF94 1 CR 2 CR 3 CR 4 CR 5 CR 13 CR 14 CR 15 CR 16 CR 17 CR 18 CR \
19 CR 29 CR 6 CB 7 CB 8 CB 9 CB 11 CB 12 CB 23 CB 24 CB \
25 CB 26 CB 27 CB 28 CB 21 C=C 22 C=C 33 HC 34 HC 35 HC \
36 HC 37 HC 38 HC 39 HC 40 HC 41 HC 42 HC 44 HC 45 HC \
46 HC 47 HC 48 HC 49 HC 50 HC 51 HC 52 HC 53 HC 54 HC \
56 HC 57 HC 58 HC 59 HC 60 HC 61 HC 43 HOCC 55 HOR 10 OC=C \
20 OR 30 F 31 F 32 F 
