#	Name:			3qqs_ligand
#	Creating user name:	suminyi
#	Creation time:		Sun Sep 30 06:51:16 2018

#	Modifying user name:	suminyi
#	Modification time:	Sun Sep 30 06:51:16 2018

@<TRIPOS>MOLECULE
3qqs_ligand
   28    29     1     1     0
SMALL
MMFF94_CHARGES


@<TRIPOS>ATOM
      1 OAA        30.5740   -5.0840   26.3620 O.co2     1 MOL        -0.9000 
      2 OAB        26.9160   -7.4960   28.9100 O.co2     1 MOL        -0.9000 
      3 OAC        31.9050   -5.3960   24.7430 O.co2     1 MOL        -0.9000 
      4 OAD        28.3590   -6.5160   27.7550 O.co2     1 MOL        -0.9000 
      5 CAE        34.0850   -8.3410   28.0100 C.ar      1 MOL        -0.1500 
      6 CAF        30.6550   -7.2380   32.2040 C.ar      1 MOL        -0.1500 
      7 CAG        34.4800   -7.8190   26.7920 C.ar      1 MOL        -0.1500 
      8 CAH        29.3090   -7.5450   32.3280 C.ar      1 MOL        -0.1500 
      9 CAI        32.9060   -7.9080   28.6090 C.ar      1 MOL        -0.1500 
     10 CAJ        31.1690   -6.8620   30.9660 C.ar      1 MOL        -0.1500 
     11 CAK        33.6590   -6.9080   26.1460 C.ar      1 MOL        -0.1500 
     12 CAL        28.4800   -7.4740   31.2150 C.ar      1 MOL        -0.1500 
     13 NAM        30.9200   -6.5400   28.6080 N.pl3     1 MOL        -0.6000 
     14 CAN        31.6090   -5.5360   25.9160 C.2       1 MOL         0.9790 
     15 CAO        28.0340   -7.0390   28.8010 C.2       1 MOL         0.9790 
     16 CAP        32.0950   -6.9380   28.0060 C.ar      1 MOL         0.1000 
     17 CAQ        30.3570   -6.8160   29.8310 C.ar      1 MOL         0.1000 
     18 CAR        32.4580   -6.4700   26.7280 C.ar      1 MOL        -0.1790 
     19 CAS        28.9840   -7.0930   29.9610 C.ar      1 MOL        -0.1790 
     20 H1         34.7000   -9.0920   28.4880 H         1 MOL         0.1500 
     21 H2         31.3040   -7.2970   33.0740 H         1 MOL         0.1500 
     22 H3         35.4150   -8.1350   26.3430 H         1 MOL         0.1500 
     23 H4         28.9050   -7.8460   33.2910 H         1 MOL         0.1500 
     24 H5         32.6260   -8.3590   29.5540 H         1 MOL         0.1500 
     25 H6         32.2230   -6.6180   30.8850 H         1 MOL         0.1500 
     26 H7         33.9670   -6.5250   25.1750 H         1 MOL         0.1500 
     27 H8         27.4250   -7.7240   31.3230 H         1 MOL         0.1500 
     28 H9         30.2210   -6.1790   27.9160 H         1 MOL         0.4000 
@<TRIPOS>BOND
     1   14    1 ar   
     2   15    2 ar   
     3   14    3 ar   
     4   15    4 ar   
     5    5    7 ar   
     6    9    5 ar   
     7    8    6 ar   
     8    6   10 ar   
     9    7   11 ar   
    10   12    8 ar   
    11   16    9 ar   
    12   10   17 ar   
    13   11   18 ar   
    14   19   12 ar   
    15   13   16 1    
    16   17   13 1    
    17   18   14 1    
    18   15   19 1    
    19   16   18 ar   
    20   17   19 ar   
    21    5   20 1    
    22    6   21 1    
    23    7   22 1    
    24    8   23 1    
    25    9   24 1    
    26   10   25 1    
    27   11   26 1    
    28   12   27 1    
    29   13   28 1    
@<TRIPOS>SUBSTRUCTURE
     1 MOL         1 PERM              0 ****  ****    0 ROOT 
@<TRIPOS>NORMAL
@<TRIPOS>ALT_TYPE
MMFF94_ALT_TYPE_SET 
MMFF94 5 CB 6 CB 7 CB 8 CB 9 CB 10 CB 11 CB 12 CB 16 CB 17 CB 18 CB \
19 CB 14 CO2M 15 CO2M 20 HC 21 HC 22 HC 23 HC 24 HC 25 HC \
26 HC 27 HC 28 HNCC 1 O2CM 2 O2CM 3 O2CM 4 O2CM 13 NC=C \

