#	Name:			4de1_ligand
#	Creating user name:	suminyi
#	Creation time:		Sun Sep 30 06:51:03 2018

#	Modifying user name:	suminyi
#	Modification time:	Sun Sep 30 06:51:03 2018

@<TRIPOS>MOLECULE
4de1_ligand
   34    37     1     1     0
SMALL
MMFF94_CHARGES


@<TRIPOS>ATOM
      1 O14        -9.2390   55.4190   13.8160 O.2       1 MOL        -0.5700 
      2 C13        -8.8860   55.6050   12.6670 C.2       1 MOL         0.5438 
      3 C15        -9.6250   56.5550   11.7930 C.ar      1 MOL         0.0862 
      4 C20       -10.6800   57.2570   12.3880 C.ar      1 MOL        -0.1500 
      5 C19       -11.3770   58.1760   11.6290 C.ar      1 MOL         0.0000 
      6 C23       -12.4470   59.0320   11.9640 C.2       1 MOL        -0.3016 
      7 N22       -12.6810   59.7020   10.7770 N.pl3     1 MOL         0.4076 
      8 N21       -11.8290   59.3360    9.7790 N.2       1 MOL        -0.7660 
      9 C18       -11.0590   58.4060   10.3330 C.ar      1 MOL         0.3480 
     10 C17       -10.0350   57.7170    9.7010 C.ar      1 MOL        -0.1500 
     11 C16        -9.3100   56.7790   10.4390 C.ar      1 MOL        -0.1500 
     12 N12        -7.8440   54.9450   12.1410 N.am      1 MOL        -0.5470 
     13 C8         -6.9800   54.0570   12.8400 C.ar      1 MOL         0.1170 
     14 C7         -5.6330   54.0460   12.5010 C.ar      1 MOL        -0.1500 
     15 C9         -7.4410   53.2450   13.8780 C.ar      1 MOL        -0.1500 
     16 C10        -6.5460   52.5130   14.6400 C.ar      1 MOL        -0.1500 
     17 C11        -5.2030   52.5030   14.3070 C.ar      1 MOL        -0.1500 
     18 C6         -4.7360   53.2470   13.2210 C.ar      1 MOL         0.0530 
     19 C2         -3.3440   53.1690   12.8710 C.2       1 MOL         0.1335 
     20 N3         -2.8480   53.7650   11.7630 N.pl3     1 MOL         0.2996 
     21 N4         -1.5290   53.5040   11.6570 N.2       1 MOL        -0.4180 
     22 N5         -1.2500   52.7740   12.7180 N.2       1 MOL         0.0000 
     23 N1         -2.3580   52.5490   13.5070 N.2       1 MOL        -0.3381 
     24 H1        -10.9070   57.1260   13.4350 H         1 MOL         0.1500 
     25 H2        -13.0020   59.1920   12.8760 H         1 MOL         0.1500 
     26 H3        -13.3830   60.3940   10.5630 H         1 MOL         0.1620 
     27 H4         -9.8190   57.9040    8.6500 H         1 MOL         0.1500 
     28 H5         -8.5130   56.2390    9.9340 H         1 MOL         0.1500 
     29 H6         -7.5550   55.2280   11.2230 H         1 MOL         0.3700 
     30 H7         -5.2990   54.6840   11.6870 H         1 MOL         0.1500 
     31 H8         -8.4970   53.1980   14.1280 H         1 MOL         0.1500 
     32 H9         -6.9000   51.9450   15.4930 H         1 MOL         0.1500 
     33 H10        -4.5400   51.8760   14.8880 H         1 MOL         0.1500 
     34 H11        -3.3620   54.2960   11.0600 H         1 MOL         0.2700 
@<TRIPOS>BOND
     1    1    2 2    
     2    2    3 1    
     3    2   12 am   
     4    3    4 ar   
     5    3   11 ar   
     6    4    5 ar   
     7    5    6 2    
     8    5    9 ar   
     9    6    7 1    
    10    7    8 1    
    11    8    9 2    
    12    9   10 ar   
    13   10   11 ar   
    14   12   13 1    
    15   13   14 ar   
    16   13   15 ar   
    17   14   18 ar   
    18   15   16 ar   
    19   16   17 ar   
    20   17   18 ar   
    21   18   19 1    
    22   19   20 1    
    23   19   23 2    
    24   20   21 1    
    25   21   22 2    
    26   22   23 1    
    27    4   24 1    
    28    6   25 1    
    29    7   26 1    
    30   10   27 1    
    31   11   28 1    
    32   12   29 1    
    33   14   30 1    
    34   15   31 1    
    35   16   32 1    
    36   17   33 1    
    37   20   34 1    
@<TRIPOS>SUBSTRUCTURE
     1 MOL         1 PERM              0 ****  ****    0 ROOT 
@<TRIPOS>NORMAL
@<TRIPOS>ALT_TYPE
MMFF94_ALT_TYPE_SET 
MMFF94 6 C5A 19 C5A 3 CB 4 CB 5 CB 9 CB 10 CB 11 CB 13 CB 14 CB 15 CB \
16 CB 17 CB 18 CB 2 C=ON 24 HC 25 HC 27 HC 28 HC 30 HC \
31 HC 32 HC 33 HC 34 HPYL 26 HNCC 29 HNCC 1 O=CN 7 NPYL \
20 NPYL 8 N5A 21 N5A 22 N5B 23 N5B 12 NC=O 
