#	Name:			2wbg_ligand
#	Creating user name:	suminyi
#	Creation time:		Sun Sep 30 06:48:54 2018

#	Modifying user name:	suminyi
#	Modification time:	Sun Sep 30 06:48:54 2018

@<TRIPOS>MOLECULE
2wbg_ligand
   50    51     1     1     0
SMALL
MMFF94_CHARGES


@<TRIPOS>ATOM
      1 O4          0.8430    7.5450   14.1690 O.3       1 LGS        -0.6800 
      2 C4          1.6720    6.6330   13.4690 C.3       1 LGS         0.2800 
      3 C5          1.0010    6.2190   12.1540 C.3       1 LGS         0.3691 
      4 C6          0.6600    7.3350   11.1680 C.3       1 LGS         0.2800 
      5 O6          1.0800    6.8220    9.8780 O.3       1 LGS        -0.4300 
      6 C3          1.8340    5.3450   14.2850 C.3       1 LGS         0.2800 
      7 O3          2.3120    5.6540   15.5960 O.3       1 LGS        -0.6800 
      8 C2          2.8750    4.4130   13.6440 C.3       1 LGS         0.2800 
      9 O2          2.8340    3.0940   14.2000 O.3       1 LGS        -0.6800 
     10 C1          2.7120    4.2930   12.1090 C.3       1 LGS         0.6491 
     11 O1          4.0080    4.3370   11.4810 O.3       1 LGS        -0.6800 
     12 N1          1.9430    5.3590   11.4230 N.pl3     1 LGS        -0.7882 
     13 C7          1.9110    5.7430   10.0970 C.2       1 LGS         0.6500 
     14 N2          2.5470    5.1310    9.0940 N.2       1 LGS        -0.6960 
     15 C8          2.3860    5.3470    7.6500 C.3       1 LGS         0.2460 
     16 C9          3.5960    6.0670    7.0660 C.3       1 LGS         0.0000 
     17 C10         3.5340    6.1340    5.5330 C.3       1 LGS         0.0000 
     18 C11         4.7730    6.8200    4.9100 C.3       1 LGS         0.0000 
     19 C12         4.5550    6.8210    3.3860 C.3       1 LGS         0.0000 
     20 C13         5.5930    7.6750    2.6270 C.3       1 LGS         0.0000 
     21 C14         6.9840    7.0190    2.6930 C.3       1 LGS         0.0000 
     22 C15         7.9430    7.6770    1.6970 C.3       1 LGS         0.0000 
     23 H1          1.2659    7.7961   14.9817 H         1 LGS         0.4000 
     24 H2          2.6518    7.0936   13.2746 H         1 LGS         0.0000 
     25 H3          0.0804    5.6683   12.3975 H         1 LGS         0.0000 
     26 H4          1.2086    8.2552   11.4176 H         1 LGS         0.0000 
     27 H5         -0.4207    7.5400   11.1715 H         1 LGS         0.0000 
     28 H6          0.8628    4.8325   14.3485 H         1 LGS         0.0000 
     29 H7          1.6904    6.2249   16.0321 H         1 LGS         0.4000 
     30 H8          3.8671    4.8417   13.8490 H         1 LGS         0.0000 
     31 H9          3.4906    2.5529   13.7774 H         1 LGS         0.4000 
     32 H10         2.2267    3.3273   11.9043 H         1 LGS         0.0000 
     33 H11         3.9138    4.1684   10.5508 H         1 LGS         0.4000 
     34 H12         1.4867    5.9559    7.4756 H         1 LGS         0.0000 
     35 H13         2.2719    4.3732    7.1513 H         1 LGS         0.0000 
     36 H14         4.5082    5.5284    7.3623 H         1 LGS         0.0000 
     37 H15         3.6285    7.0911    7.4662 H         1 LGS         0.0000 
     38 H16         2.6364    6.6996    5.2423 H         1 LGS         0.0000 
     39 H17         3.4652    5.1092    5.1393 H         1 LGS         0.0000 
     40 H18         5.6848    6.2589    5.1626 H         1 LGS         0.0000 
     41 H19         4.8626    7.8516    5.2813 H         1 LGS         0.0000 
     42 H20         3.5519    7.2206    3.1760 H         1 LGS         0.0000 
     43 H21         4.6206    5.7850    3.0222 H         1 LGS         0.0000 
     44 H22         5.6424    8.6746    3.0834 H         1 LGS         0.0000 
     45 H23         5.2860    7.7671    1.5747 H         1 LGS         0.0000 
     46 H24         6.8905    5.9500    2.4512 H         1 LGS         0.0000 
     47 H25         7.3877    7.1309    3.7101 H         1 LGS         0.0000 
     48 H26         8.9285    7.1926    1.7622 H         1 LGS         0.0000 
     49 H27         8.0434    8.7460    1.9361 H         1 LGS         0.0000 
     50 H28         7.5462    7.5650    0.6772 H         1 LGS         0.0000 
@<TRIPOS>BOND
     1    1    2 1    
     2    2    3 1    
     3    2    6 1    
     4    3    4 1    
     5    3   12 1    
     6    4    5 1    
     7    5   13 1    
     8    6    7 1    
     9    6    8 1    
    10    8    9 1    
    11    8   10 1    
    12   10   11 1    
    13   10   12 1    
    14   12   13 1    
    15   13   14 2    
    16   14   15 1    
    17   15   16 1    
    18   16   17 1    
    19   17   18 1    
    20   18   19 1    
    21   19   20 1    
    22   20   21 1    
    23   21   22 1    
    24    1   23 1    
    25    2   24 1    
    26    3   25 1    
    27    4   26 1    
    28    4   27 1    
    29    6   28 1    
    30    7   29 1    
    31    8   30 1    
    32    9   31 1    
    33   10   32 1    
    34   11   33 1    
    35   15   34 1    
    36   15   35 1    
    37   16   36 1    
    38   16   37 1    
    39   17   38 1    
    40   17   39 1    
    41   18   40 1    
    42   18   41 1    
    43   19   42 1    
    44   19   43 1    
    45   20   44 1    
    46   20   45 1    
    47   21   46 1    
    48   21   47 1    
    49   22   48 1    
    50   22   49 1    
    51   22   50 1    
@<TRIPOS>SUBSTRUCTURE
     1 LGS         1 PERM              0 ****  ****    0 ROOT 
@<TRIPOS>NORMAL
@<TRIPOS>ALT_TYPE
MMFF94_ALT_TYPE_SET 
MMFF94 2 CR 3 CR 4 CR 6 CR 8 CR 10 CR 15 CR 16 CR 17 CR 18 CR 19 CR \
20 CR 21 CR 22 CR 13 C=N 24 HC 25 HC 26 HC 27 HC 28 HC \
30 HC 32 HC 34 HC 35 HC 36 HC 37 HC 38 HC 39 HC 40 HC \
41 HC 42 HC 43 HC 44 HC 45 HC 46 HC 47 HC 48 HC 49 HC \
50 HC 23 HOR 29 HOR 31 HOR 33 HOR 5 OC=N 1 OR 7 OR 9 OR \
11 OR 14 N=C 12 NC=N 
