#	Name:			2wbg_ligand
#	Creating user name:	suminyi
#	Creation time:		Sun Sep 30 06:50:59 2018

#	Modifying user name:	suminyi
#	Modification time:	Sun Sep 30 06:50:59 2018

@<TRIPOS>MOLECULE
2wbg_ligand
   50    51     1     1     0
SMALL
MMFF94_CHARGES


@<TRIPOS>ATOM
      1 O4          0.8890    7.5880   14.2040 O.3       1 MOL        -0.6800 
      2 C4          1.7280    6.6630   13.4770 C.3       1 MOL         0.2800 
      3 C5          1.1140    6.2060   12.1370 C.3       1 MOL         0.3691 
      4 C6          0.7590    7.2990   11.1240 C.3       1 MOL         0.2800 
      5 O6          1.1150    6.7200    9.8320 O.3       1 MOL        -0.4300 
      6 C3          1.9100    5.3480   14.2720 C.3       1 MOL         0.2800 
      7 O3          2.4270    5.6190   15.5800 O.3       1 MOL        -0.6800 
      8 C2          2.9240    4.4170   13.5660 C.3       1 MOL         0.2800 
      9 O2          2.8150    3.0810   14.1080 O.3       1 MOL        -0.6800 
     10 C1          2.9010    4.4260   11.9950 C.3       1 MOL         0.6491 
     11 O1          4.2460    4.6490   11.5920 O.3       1 MOL        -0.6800 
     12 N1          2.0890    5.4660   11.3590 N.pl3     1 MOL        -0.7882 
     13 C7          2.0420    5.7370   10.0440 C.2       1 MOL         0.6500 
     14 N2          2.6450    5.0960    9.0960 N.2       1 MOL        -0.6960 
     15 C8          2.3920    5.3860    7.6730 C.3       1 MOL         0.2460 
     16 C9          3.6600    5.9920    7.0510 C.3       1 MOL         0.0000 
     17 C10         3.5130    6.0950    5.5200 C.3       1 MOL         0.0000 
     18 C11         4.7280    6.8030    4.8860 C.3       1 MOL         0.0000 
     19 C12         4.5360    6.9530    3.3630 C.3       1 MOL         0.0000 
     20 C13         5.6730    7.7580    2.6930 C.3       1 MOL         0.0000 
     21 C14         7.0040    6.9740    2.6480 C.3       1 MOL         0.0000 
     22 C15         8.0230    7.6550    1.7160 C.3       1 MOL         0.0000 
     23 H1          0.9260    8.5000   13.7370 H         1 MOL         0.4000 
     24 H2          2.7020    7.1260   13.2880 H         1 MOL         0.0000 
     25 H3          0.2280    5.5940   12.3270 H         1 MOL         0.0000 
     26 H4          1.3830    8.1730   11.2830 H         1 MOL         0.0000 
     27 H5         -0.2990    7.5660   11.1650 H         1 MOL         0.0000 
     28 H6          0.9460    4.8360   14.3510 H         1 MOL         0.0000 
     29 H7          1.7200    6.0870   16.1070 H         1 MOL         0.4000 
     30 H8          3.9090    4.7920   13.8560 H         1 MOL         0.0000 
     31 H9          1.8730    2.7400   13.9950 H         1 MOL         0.4000 
     32 H10         2.5880    3.4400   11.6090 H         1 MOL         0.0000 
     33 H11         4.6630    3.7220   11.6560 H         1 MOL         0.4000 
     34 H12         1.5340    6.0440    7.5400 H         1 MOL         0.0000 
     35 H13         2.1810    4.4390    7.1730 H         1 MOL         0.0000 
     36 H14         4.5200    5.3640    7.2980 H         1 MOL         0.0000 
     37 H15         3.8390    6.9760    7.4890 H         1 MOL         0.0000 
     38 H16         2.6020    6.6460    5.2810 H         1 MOL         0.0000 
     39 H17         3.4090    5.0930    5.0980 H         1 MOL         0.0000 
     40 H18         5.6320    6.2270    5.0980 H         1 MOL         0.0000 
     41 H19         4.8510    7.7890    5.3390 H         1 MOL         0.0000 
     42 H20         3.5890    7.4610    3.1720 H         1 MOL         0.0000 
     43 H21         4.4610    5.9620    2.9110 H         1 MOL         0.0000 
     44 H22         5.8200    8.7040    3.2210 H         1 MOL         0.0000 
     45 H23         5.3720    8.0150    1.6760 H         1 MOL         0.0000 
     46 H24         6.8270    5.9560    2.2920 H         1 MOL         0.0000 
     47 H25         7.4270    6.9010    3.6530 H         1 MOL         0.0000 
     48 H26         8.9700    7.1110    1.7280 H         1 MOL         0.0000 
     49 H27         8.2120    8.6820    2.0340 H         1 MOL         0.0000 
     50 H28         7.6530    7.6700    0.6870 H         1 MOL         0.0000 
@<TRIPOS>BOND
     1    1    2 1    
     2    2    3 1    
     3    2    6 1    
     4    3    4 1    
     5    3   12 1    
     6    4    5 1    
     7    5   13 1    
     8    6    7 1    
     9    6    8 1    
    10    8    9 1    
    11    8   10 1    
    12   10   11 1    
    13   10   12 1    
    14   12   13 1    
    15   13   14 2    
    16   14   15 1    
    17   15   16 1    
    18   16   17 1    
    19   17   18 1    
    20   18   19 1    
    21   19   20 1    
    22   20   21 1    
    23   21   22 1    
    24    1   23 1    
    25    2   24 1    
    26    3   25 1    
    27    4   26 1    
    28    4   27 1    
    29    6   28 1    
    30    7   29 1    
    31    8   30 1    
    32    9   31 1    
    33   10   32 1    
    34   11   33 1    
    35   15   34 1    
    36   15   35 1    
    37   16   36 1    
    38   16   37 1    
    39   17   38 1    
    40   17   39 1    
    41   18   40 1    
    42   18   41 1    
    43   19   42 1    
    44   19   43 1    
    45   20   44 1    
    46   20   45 1    
    47   21   46 1    
    48   21   47 1    
    49   22   48 1    
    50   22   49 1    
    51   22   50 1    
@<TRIPOS>SUBSTRUCTURE
     1 MOL         1 PERM              0 ****  ****    0 ROOT 
@<TRIPOS>NORMAL
@<TRIPOS>ALT_TYPE
MMFF94_ALT_TYPE_SET 
MMFF94 2 CR 3 CR 4 CR 6 CR 8 CR 10 CR 15 CR 16 CR 17 CR 18 CR 19 CR \
20 CR 21 CR 22 CR 13 C=N 24 HC 25 HC 26 HC 27 HC 28 HC \
30 HC 32 HC 34 HC 35 HC 36 HC 37 HC 38 HC 39 HC 40 HC \
41 HC 42 HC 43 HC 44 HC 45 HC 46 HC 47 HC 48 HC 49 HC \
50 HC 23 HOR 29 HOR 31 HOR 33 HOR 5 OC=N 1 OR 7 OR 9 OR \
11 OR 14 N=C 12 NC=N 
