#	Name:			1lpg_ligand
#	Creating user name:	suminyi
#	Creation time:		Sun Sep 30 06:50:56 2018

#	Modifying user name:	suminyi
#	Modification time:	Sun Sep 30 06:50:56 2018

@<TRIPOS>MOLECULE
1lpg_ligand
   78    82     1     1     0
SMALL
MMFF94_CHARGES


@<TRIPOS>ATOM
      1 C11         2.7350   10.2200   24.2480 C.ar      1 MOL         0.0825 
      2 C12         3.6000    9.6850   25.2150 C.ar      1 MOL        -0.1500 
      3 C13         4.7430    8.9660   24.8350 C.ar      1 MOL        -0.1500 
      4 C14         4.9930    8.8100   23.4730 C.ar      1 MOL        -0.1516 
      5 C15         4.1270    9.2960   22.5370 C.ar      1 MOL         0.0000 
      6 C16         2.9870   10.0050   22.8860 C.ar      1 MOL        -0.1500 
      7 C17         4.6200    8.9750   21.2490 C.2       1 MOL        -0.1500 
      8 N18         6.0480    8.2090   22.8700 N.pl3     1 MOL         0.0476 
      9 C19         5.8220    8.3270   21.4920 C.2       1 MOL        -0.2366 
     10 C20         6.9470    7.2430   23.5150 C.3       1 MOL         0.3991 
     11 C21         6.7990    7.8270   20.5090 C.2       1 MOL         0.7150 
     12 N22         6.2660    7.6260   19.2900 N.am      1 MOL        -0.7301 
     13 C23         7.0380    7.2350   18.1040 C.3       1 MOL         0.4436 
     14 C24         7.2890    5.7370   17.9750 C.ar      1 MOL        -0.1435 
     15 O27         7.9730    7.6240   20.7210 O.2       1 MOL        -0.5700 
     16 C28         8.1550    7.8200   24.2400 C.ar      1 MOL        -0.1435 
     17 C31         9.7000    7.5690   26.1050 C.ar      1 MOL        -0.0220 
     18 C32         8.5660    7.1710   25.3970 C.ar      1 MOL        -0.1500 
     19 C33         8.9130    8.8840   23.7500 C.ar      1 MOL        -0.1500 
     20 C34        10.0540    9.2960   24.4410 C.ar      1 MOL        -0.1500 
     21 C35        10.4500    8.6450   25.6090 C.ar      1 MOL        -0.1500 
     22 C36        10.0980    6.8190   27.3240 C.cat     1 MOL         0.7308 
     23 N37         9.3340    5.7800   27.8220 N.pl3     1 MOL        -1.1924 
     24 N38        11.3210    7.0200   27.9160 N.pl3     1 MOL        -1.1924 
     25 C39         8.6430    3.8190   18.5820 C.ar      1 MOL        -0.1500 
     26 C40         8.0040    3.0310   17.6210 C.ar      1 MOL         0.3640 
     27 C41         7.0170    3.6240   16.8230 C.ar      1 MOL        -0.1500 
     28 C42         6.6540    4.9610   17.0040 C.ar      1 MOL        -0.1500 
     29 C43         8.2870    5.1530   18.7460 C.ar      1 MOL        -0.1500 
     30 N44         8.4520    1.6370   17.3350 N.4       1 MOL        -0.8730 
     31 C45         9.3010    1.6800   16.0830 C.3       1 MOL         0.5030 
     32 C49         7.2620    0.7090   17.1660 C.3       1 MOL         0.5030 
     33 C53         9.2770    1.0330   18.4680 C.3       1 MOL         0.5030 
     34 O1          1.6640   10.9790   24.6810 O.3       1 MOL        -0.3625 
     35 C1          0.7650   11.6570   23.7670 C.3       1 MOL         0.4235 
     36 C2         -0.2430   12.5240   24.5090 C.ar      1 MOL        -0.1435 
     37 C3         -1.3810   12.9790   23.8390 C.ar      1 MOL        -0.1500 
     38 C4         -2.3020   13.8030   24.4860 C.ar      1 MOL        -0.1500 
     39 C5         -2.0850   14.1880   25.8070 C.ar      1 MOL        -0.1500 
     40 C6         -0.9470   13.7460   26.4740 C.ar      1 MOL        -0.1500 
     41 C7         -0.0370   12.9090   25.8360 C.ar      1 MOL        -0.1500 
     42 H1          3.3810    9.8540   26.2680 H         1 MOL         0.1500 
     43 H2          5.4260    8.5620   25.5780 H         1 MOL         0.1500 
     44 H3          2.3340   10.3950   22.1130 H         1 MOL         0.1500 
     45 H4          4.1830    9.2350   20.2900 H         1 MOL         0.1500 
     46 H5          7.2940    6.5170   22.7770 H         1 MOL         0.0000 
     47 H6          6.3430    6.6750   24.2260 H         1 MOL         0.0000 
     48 H7          5.2690    7.6760   19.2160 H         1 MOL         0.3700 
     49 H8          8.0020    7.7540   18.1390 H         1 MOL         0.0000 
     50 H9          6.5140    7.6010   17.2170 H         1 MOL         0.0000 
     51 H10         8.0080    6.2960   25.7080 H         1 MOL         0.1500 
     52 H11         8.6420    9.3670   22.8150 H         1 MOL         0.1500 
     53 H12        10.6590   10.1190   24.0620 H         1 MOL         0.1500 
     54 H13        11.3570    8.9850   26.1070 H         1 MOL         0.1500 
     55 H14         8.3310    5.8940   27.6960 H         1 MOL         0.6690 
     56 H15         9.5690    5.5150   28.7870 H         1 MOL         0.6690 
     57 H16        11.6580    7.9640   27.8450 H         1 MOL         0.6690 
     58 H17        11.3980    6.6520   28.8730 H         1 MOL         0.6690 
     59 H18         9.4570    3.4340   19.1860 H         1 MOL         0.1500 
     60 H19         6.5470    3.0610   16.0220 H         1 MOL         0.1500 
     61 H20         5.9050    5.4030   16.3540 H         1 MOL         0.1500 
     62 H21         8.8340    5.7690   19.4460 H         1 MOL         0.1500 
     63 H22         9.5410    0.6570   15.7910 H         1 MOL         0.0000 
     64 H23        10.2110    2.2470   16.2970 H         1 MOL         0.0000 
     65 H24         8.7400    2.1690   15.2820 H         1 MOL         0.0000 
     66 H25         6.6580    0.7390   18.0760 H         1 MOL         0.0000 
     67 H26         7.6300   -0.3050   16.9930 H         1 MOL         0.0000 
     68 H27         6.6720    1.0340   16.3070 H         1 MOL         0.0000 
     69 H28        10.2060    1.5990   18.5820 H         1 MOL         0.0000 
     70 H29         9.5120   -0.0060   18.2270 H         1 MOL         0.0000 
     71 H30         8.6990    1.0780   19.3950 H         1 MOL         0.0000 
     72 H31         0.2450   10.9000   23.1720 H         1 MOL         0.0000 
     73 H32         1.3570   12.2850   23.0990 H         1 MOL         0.0000 
     74 H33        -1.5580   12.6880   22.8050 H         1 MOL         0.1500 
     75 H34        -3.1930   14.1400   23.9600 H         1 MOL         0.1500 
     76 H35        -2.8040   14.8220   26.3210 H         1 MOL         0.1500 
     77 H36        -0.7580   14.0630   27.4920 H         1 MOL         0.1500 
     78 H37         0.8440   12.5680   26.3750 H         1 MOL         0.1500 
@<TRIPOS>BOND
     1    2    1 ar   
     2    6    1 ar   
     3    1   34 1    
     4    3    2 ar   
     5    4    3 ar   
     6    4    5 ar   
     7    8    4 1    
     8    5    6 ar   
     9    7    5 1    
    10    9    7 2    
    11    8    9 1    
    12   10    8 1    
    13    9   11 1    
    14   16   10 1    
    15   11   12 am   
    16   11   15 2    
    17   12   13 1    
    18   13   14 1    
    19   14   28 ar   
    20   14   29 ar   
    21   16   18 ar   
    22   19   16 ar   
    23   20   19 ar   
    24   21   20 ar   
    25   22   23 ar   
    26   22   24 ar   
    27   25   26 ar   
    28   29   25 ar   
    29   27   26 ar   
    30   26   30 1    
    31   28   27 ar   
    32   30   31 1    
    33   30   32 1    
    34   30   33 1    
    35   34   35 1    
    36   35   36 1    
    37   36   37 ar   
    38   36   41 ar   
    39   37   38 ar   
    40   38   39 ar   
    41   40   39 ar   
    42   41   40 ar   
    43   17   22 1    
    44   21   17 ar   
    45   18   17 ar   
    46    2   42 1    
    47    3   43 1    
    48    6   44 1    
    49    7   45 1    
    50   10   46 1    
    51   10   47 1    
    52   12   48 1    
    53   13   49 1    
    54   13   50 1    
    55   18   51 1    
    56   19   52 1    
    57   20   53 1    
    58   21   54 1    
    59   23   55 1    
    60   23   56 1    
    61   24   57 1    
    62   24   58 1    
    63   25   59 1    
    64   27   60 1    
    65   28   61 1    
    66   29   62 1    
    67   31   63 1    
    68   31   64 1    
    69   31   65 1    
    70   32   66 1    
    71   32   67 1    
    72   32   68 1    
    73   33   69 1    
    74   33   70 1    
    75   33   71 1    
    76   35   72 1    
    77   35   73 1    
    78   37   74 1    
    79   38   75 1    
    80   39   76 1    
    81   40   77 1    
    82   41   78 1    
@<TRIPOS>SUBSTRUCTURE
     1 MOL         1 PERM              0 ****  ****    0 ROOT 
@<TRIPOS>NORMAL
@<TRIPOS>ALT_TYPE
MMFF94_ALT_TYPE_SET 
MMFF94 10 CR 13 CR 31 CR 32 CR 33 CR 35 CR 9 C5A 4 C5A 7 C5B 5 C5B 1 CB \
2 CB 3 CB 6 CB 14 CB 16 CB 17 CB 18 CB 19 CB 20 CB 21 CB \
25 CB 26 CB 27 CB 28 CB 29 CB 36 CB 37 CB 38 CB 39 CB \
40 CB 41 CB 22 CNN+ 11 C=ON 42 HC 43 HC 44 HC 45 HC 46 HC \
47 HC 49 HC 50 HC 51 HC 52 HC 53 HC 54 HC 59 HC 60 HC \
61 HC 62 HC 63 HC 64 HC 65 HC 66 HC 67 HC 68 HC 69 HC \
70 HC 71 HC 72 HC 73 HC 74 HC 75 HC 76 HC 77 HC 78 HC \
48 HNCO 55 HN 56 HN 57 HN 58 HN 15 O=CN 34 OC=C 8 NPYL \
30 NR+ 23 NCN+ 24 NCN+ 12 NC=O 
