#	Name:			3prs_ligand
#	Creating user name:	suminyi
#	Creation time:		Sun Sep 30 06:49:02 2018

#	Modifying user name:	suminyi
#	Modification time:	Sun Sep 30 06:49:02 2018

@<TRIPOS>MOLECULE
3prs_ligand
   98   101     1     1     0
SMALL
MMFF94_CHARGES


@<TRIPOS>ATOM
      1 C1          2.7890    8.6360   16.1290 C.2       1 RIT         0.0772 
      2 C2          3.1400    8.1810   14.8630 C.2       1 RIT        -0.1400 
      3 S3          4.7180    7.5550   14.9430 S.3       1 RIT        -0.0800 
      4 C4          4.8470    7.9150   16.6130 C.2       1 RIT         0.2281 
      5 N5          3.7590    8.4800   17.1150 N.2       1 RIT        -0.5653 
      6 C6          2.3350    8.2090   13.6320 C.3       1 RIT         0.4600 
      7 O7          2.6200    7.0870   12.7570 O.3       1 RIT        -0.4300 
      8 C10         1.6770    6.9560   11.7860 C.2       1 RIT         0.7800 
      9 O24         0.5950    7.5100   11.8610 O.2       1 RIT        -0.5700 
     10 N11         2.1650    6.1530   10.7920 N.am      1 RIT        -0.7301 
     11 C12         1.3860    6.0740    9.5130 C.3       1 RIT         0.3001 
     12 C13         1.3350    4.6090    9.0200 C.3       1 RIT         0.2800 
     13 C14         0.4810    3.6890    9.8940 C.3       1 RIT         0.0000 
     14 C15        -0.9780    4.1640   10.0740 C.3       1 RIT         0.3001 
     15 C26         2.0260    7.0260    8.4580 C.3       1 RIT         0.1435 
     16 C28         1.9450    8.4830    8.8420 C.ar      1 RIT        -0.1435 
     17 C31         0.7520    9.1890    8.6020 C.ar      1 RIT        -0.1500 
     18 C32         0.6660   10.5530    8.9710 C.ar      1 RIT        -0.1500 
     19 C33         1.7580   11.1910    9.5700 C.ar      1 RIT        -0.1500 
     20 C34         2.9310   10.4830    9.8120 C.ar      1 RIT        -0.1500 
     21 C35         3.0360    9.1290    9.4400 C.ar      1 RIT        -0.1500 
     22 O41         2.6620    4.0940    8.8740 O.3       1 RIT        -0.6800 
     23 C44        -1.8040    3.2440   10.9990 C.3       1 RIT         0.1435 
     24 C45        -2.1920    1.8750   10.4720 C.ar      1 RIT        -0.1435 
     25 C48        -3.2680    1.6770    9.6160 C.ar      1 RIT        -0.1500 
     26 C49        -3.6210    0.4050    9.1620 C.ar      1 RIT        -0.1500 
     27 C50        -2.8690   -0.6980    9.6000 C.ar      1 RIT        -0.1500 
     28 C51        -1.7920   -0.5330   10.4420 C.ar      1 RIT        -0.1500 
     29 C52        -1.4570    0.7500   10.8730 C.ar      1 RIT        -0.1500 
     30 N58        -1.5440    4.2650    8.7180 N.am      1 RIT        -0.7301 
     31 N20        -4.2440    4.3260    7.0750 N.am      1 RIT        -0.7301 
     32 C19        -3.0430    5.1970    7.0360 C.3       1 RIT         0.3611 
     33 C18        -2.5100    5.2120    8.4880 C.2       1 RIT         0.5690 
     34 O61        -2.9160    5.9490    9.3760 O.2       1 RIT        -0.5700 
     35 C62        -3.3980    6.6570    6.6560 C.3       1 RIT         0.0000 
     36 C64        -2.1350    7.5120    6.6510 C.3       1 RIT         0.0000 
     37 C68        -4.0490    6.6610    5.2570 C.3       1 RIT         0.0000 
     38 C21        -4.4000    3.3980    6.0590 C.2       1 RIT         0.6900 
     39 N74        -5.5730    2.6430    6.1260 N.am      1 RIT        -0.6602 
     40 C75        -5.8520    1.7200    5.0290 C.3       1 RIT         0.4811 
     41 O76        -3.6110    3.3330    5.1190 O.2       1 RIT        -0.5700 
     42 C77        -6.1120    0.3210    5.4880 C.2       1 RIT         0.0462 
     43 C80        -5.1260   -0.5680    5.8420 C.2       1 RIT        -0.1100 
     44 S81        -5.8390   -2.0450    6.3170 S.3       1 RIT        -0.0800 
     45 C82        -7.3990   -1.4070    6.0240 C.2       1 RIT         0.1981 
     46 N83        -7.3940   -0.1880    5.5840 N.2       1 RIT        -0.5653 
     47 C85        -8.5870   -2.3040    6.2900 C.3       1 RIT         0.1800 
     48 C86        -9.0810   -2.9710    5.0230 C.3       1 RIT         0.0000 
     49 C90        -8.2790   -3.3080    7.4070 C.3       1 RIT         0.0000 
     50 C95        -6.5900    2.8060    7.1590 C.3       1 RIT         0.3001 
     51 H1          1.8187    9.0851   16.3357 H         1 RIT         0.1500 
     52 H2          5.7362    7.7004   17.2039 H         1 RIT         0.1500 
     53 H3          2.5501    9.1421   13.0907 H         1 RIT         0.0000 
     54 H4          1.2700    8.1812   13.9060 H         1 RIT         0.0000 
     55 H5          3.0124    5.6362   10.9140 H         1 RIT         0.3700 
     56 H6          0.3560    6.4101    9.7033 H         1 RIT         0.0000 
     57 H7          0.8715    4.6209    8.0225 H         1 RIT         0.0000 
     58 H8          0.9483    3.6252   10.8877 H         1 RIT         0.0000 
     59 H9          0.4646    2.6910    9.4317 H         1 RIT         0.0000 
     60 H10        -0.9692    5.1654   10.5290 H         1 RIT         0.0000 
     61 H11         1.5030    6.8878    7.5002 H         1 RIT         0.0000 
     62 H12         3.0854    6.7545    8.3398 H         1 RIT         0.0000 
     63 H13        -0.0934    8.6932    8.1389 H         1 RIT         0.1500 
     64 H14        -0.2489   11.1052    8.7889 H         1 RIT         0.1500 
     65 H15         1.6900   12.2372    9.8455 H         1 RIT         0.1500 
     66 H16         3.7693   10.9768   10.2899 H         1 RIT         0.1500 
     67 H17         3.9584    8.5874    9.6156 H         1 RIT         0.1500 
     68 H18         3.1706    4.6823    8.3283 H         1 RIT         0.4000 
     69 H19        -2.7345    3.7764   11.2454 H         1 RIT         0.0000 
     70 H20        -1.2168    3.0882   11.9160 H         1 RIT         0.0000 
     71 H21        -3.8489    2.5329    9.2920 H         1 RIT         0.1500 
     72 H22        -4.4576    0.2711    8.4858 H         1 RIT         0.1500 
     73 H23        -3.1408   -1.6942    9.2700 H         1 RIT         0.1500 
     74 H24        -1.2120   -1.3897   10.7656 H         1 RIT         0.1500 
     75 H25        -0.6079    0.8810   11.5340 H         1 RIT         0.1500 
     76 H26        -1.2328    3.6600    7.9851 H         1 RIT         0.3700 
     77 H27        -4.9175    4.4065    7.8098 H         1 RIT         0.3700 
     78 H28        -2.2959    4.7948    6.3360 H         1 RIT         0.0000 
     79 H29        -4.1079    7.0649    7.3906 H         1 RIT         0.0000 
     80 H30        -2.3936    8.5464    6.3807 H         1 RIT         0.0000 
     81 H31        -1.4220    7.1086    5.9169 H         1 RIT         0.0000 
     82 H32        -1.6786    7.4977    7.6517 H         1 RIT         0.0000 
     83 H33        -4.9579    6.0416    5.2738 H         1 RIT         0.0000 
     84 H34        -3.3403    6.2524    4.5216 H         1 RIT         0.0000 
     85 H35        -4.3130    7.6918    4.9783 H         1 RIT         0.0000 
     86 H36        -4.9856    1.7102    4.3514 H         1 RIT         0.0000 
     87 H37        -6.7382    2.0801    4.4859 H         1 RIT         0.0000 
     88 H38        -4.0567   -0.3627    5.8227 H         1 RIT         0.1500 
     89 H39        -9.4040   -1.6623    6.6515 H         1 RIT         0.0000 
     90 H40        -9.9429   -3.6127    5.2585 H         1 RIT         0.0000 
     91 H41        -8.2748   -3.5833    4.5926 H         1 RIT         0.0000 
     92 H42        -9.3841   -2.2015    4.2977 H         1 RIT         0.0000 
     93 H43        -7.9259   -2.7682    8.2980 H         1 RIT         0.0000 
     94 H44        -7.4991   -4.0058    7.0681 H         1 RIT         0.0000 
     95 H45        -9.1909   -3.8703    7.6564 H         1 RIT         0.0000 
     96 H46        -6.2370    3.5276    7.9104 H         1 RIT         0.0000 
     97 H47        -6.7801    1.8365    7.6426 H         1 RIT         0.0000 
     98 H48        -7.5198    3.1769    6.7030 H         1 RIT         0.0000 
@<TRIPOS>BOND
     1    2    1 2    
     2    1    5 1    
     3    2    3 1    
     4    6    2 1    
     5    3    4 1    
     6    4    5 2    
     7    7    6 1    
     8    8    7 1    
     9    8    9 2    
    10   10    8 am   
    11   11   10 1    
    12   12   11 1    
    13   11   15 1    
    14   13   12 1    
    15   12   22 1    
    16   14   13 1    
    17   14   23 1    
    18   30   14 1    
    19   15   16 1    
    20   16   17 ar   
    21   16   21 ar   
    22   17   18 ar   
    23   18   19 ar   
    24   20   19 ar   
    25   21   20 ar   
    26   23   24 1    
    27   24   25 ar   
    28   24   29 ar   
    29   25   26 ar   
    30   26   27 ar   
    31   28   27 ar   
    32   29   28 ar   
    33   33   30 am   
    34   32   31 1    
    35   31   38 am   
    36   32   33 1    
    37   32   35 1    
    38   33   34 2    
    39   35   36 1    
    40   35   37 1    
    41   38   39 am   
    42   38   41 2    
    43   39   40 1    
    44   39   50 1    
    45   40   42 1    
    46   42   43 2    
    47   42   46 1    
    48   43   44 1    
    49   44   45 1    
    50   45   46 2    
    51   45   47 1    
    52   47   48 1    
    53   47   49 1    
    54    1   51 1    
    55    4   52 1    
    56    6   53 1    
    57    6   54 1    
    58   10   55 1    
    59   11   56 1    
    60   12   57 1    
    61   13   58 1    
    62   13   59 1    
    63   14   60 1    
    64   15   61 1    
    65   15   62 1    
    66   17   63 1    
    67   18   64 1    
    68   19   65 1    
    69   20   66 1    
    70   21   67 1    
    71   22   68 1    
    72   23   69 1    
    73   23   70 1    
    74   25   71 1    
    75   26   72 1    
    76   27   73 1    
    77   28   74 1    
    78   29   75 1    
    79   30   76 1    
    80   31   77 1    
    81   32   78 1    
    82   35   79 1    
    83   36   80 1    
    84   36   81 1    
    85   36   82 1    
    86   37   83 1    
    87   37   84 1    
    88   37   85 1    
    89   40   86 1    
    90   40   87 1    
    91   43   88 1    
    92   47   89 1    
    93   48   90 1    
    94   48   91 1    
    95   48   92 1    
    96   49   93 1    
    97   49   94 1    
    98   49   95 1    
    99   50   96 1    
   100   50   97 1    
   101   50   98 1    
@<TRIPOS>SUBSTRUCTURE
     1 RIT         1 PERM              0 ****  ****    0 ROOT 
@<TRIPOS>NORMAL
@<TRIPOS>ALT_TYPE
MMFF94_ALT_TYPE_SET 
MMFF94 6 CR 11 CR 12 CR 13 CR 14 CR 15 CR 23 CR 32 CR 35 CR 36 CR 37 CR \
40 CR 47 CR 48 CR 49 CR 50 CR 2 C5A 4 C5A 43 C5A 45 C5A \
1 C5B 42 C5B 16 CB 17 CB 18 CB 19 CB 20 CB 21 CB 24 CB \
25 CB 26 CB 27 CB 28 CB 29 CB 8 COO 38 CONN 33 C=ON 51 HC \
52 HC 53 HC 54 HC 56 HC 57 HC 58 HC 59 HC 60 HC 61 HC \
62 HC 63 HC 64 HC 65 HC 66 HC 67 HC 69 HC 70 HC 71 HC \
72 HC 73 HC 74 HC 75 HC 78 HC 79 HC 80 HC 81 HC 82 HC \
83 HC 84 HC 85 HC 86 HC 87 HC 88 HC 89 HC 90 HC 91 HC \
92 HC 93 HC 94 HC 95 HC 96 HC 97 HC 98 HC 55 HNCO 76 HNCO \
77 HNCO 68 HOR 9 O=CN 34 O=CN 41 O=CN 7 OC=O 22 OR \
5 N5B 46 N5B 10 NC=O 30 NC=O 31 NC=O 39 NC=O 3 STHI 44 STHI \

