#	Name:			3prs_ligand
#	Creating user name:	suminyi
#	Creation time:		Sun Sep 30 06:50:59 2018

#	Modifying user name:	suminyi
#	Modification time:	Sun Sep 30 06:50:59 2018

@<TRIPOS>MOLECULE
3prs_ligand
   98   101     1     1     0
SMALL
MMFF94_CHARGES


@<TRIPOS>ATOM
      1 C1          2.8010    8.6860   16.0890 C.2       1 MOL         0.0772 
      2 C2          3.0970    8.0880   14.8990 C.2       1 MOL        -0.1400 
      3 S3          4.5840    7.2030   14.9380 S.3       1 MOL        -0.0800 
      4 C4          4.7150    7.6640   16.6150 C.2       1 MOL         0.2281 
      5 N5          3.7430    8.4730   17.0700 N.2       1 MOL        -0.5653 
      6 C6          2.1870    8.2350   13.7170 C.3       1 MOL         0.4600 
      7 O7          2.4540    7.2620   12.6880 O.3       1 MOL        -0.4300 
      8 C10         1.6090    7.2780   11.6450 C.2       1 MOL         0.7800 
      9 O24         0.6070    7.9580   11.5680 O.2       1 MOL        -0.5700 
     10 N11         1.9890    6.4200   10.7060 N.am      1 MOL        -0.7301 
     11 C12         1.3290    6.2460    9.4040 C.3       1 MOL         0.3001 
     12 C13         1.4490    4.7590    8.9570 C.3       1 MOL         0.2800 
     13 C14         0.6290    3.7620    9.8360 C.3       1 MOL         0.0000 
     14 C15        -0.8480    4.1870   10.0490 C.3       1 MOL         0.3001 
     15 C26         1.9660    7.1830    8.3460 C.3       1 MOL         0.1435 
     16 C28         1.9400    8.6590    8.7240 C.ar      1 MOL        -0.1435 
     17 C31         0.7780    9.4090    8.5550 C.ar      1 MOL        -0.1500 
     18 C32         0.7460   10.7560    8.9130 C.ar      1 MOL        -0.1500 
     19 C33         1.8840   11.3630    9.4380 C.ar      1 MOL        -0.1500 
     20 C34         3.0500   10.6190    9.6070 C.ar      1 MOL        -0.1500 
     21 C35         3.0780    9.2710    9.2520 C.ar      1 MOL        -0.1500 
     22 O41         2.8350    4.4330    9.0570 O.3       1 MOL        -0.6800 
     23 C44        -1.6560    3.2520   10.9860 C.3       1 MOL         0.1435 
     24 C45        -2.0570    1.9000   10.4260 C.ar      1 MOL        -0.1435 
     25 C48        -3.2490    1.7330    9.7150 C.ar      1 MOL        -0.1500 
     26 C49        -3.6030    0.4760    9.2240 C.ar      1 MOL        -0.1500 
     27 C50        -2.7800   -0.6210    9.4690 C.ar      1 MOL        -0.1500 
     28 C51        -1.6070   -0.4590   10.2000 C.ar      1 MOL        -0.1500 
     29 C52        -1.2440    0.7980   10.6710 C.ar      1 MOL        -0.1500 
     30 N58        -1.5370    4.3690    8.7750 N.am      1 MOL        -0.7301 
     31 N20        -4.2800    4.3280    7.1540 N.am      1 MOL        -0.7301 
     32 C19        -3.1260    5.2710    7.1740 C.3       1 MOL         0.3611 
     33 C18        -2.4540    5.3200    8.5480 C.2       1 MOL         0.5690 
     34 O61        -2.7210    6.1530    9.4020 O.2       1 MOL        -0.5700 
     35 C62        -3.4570    6.7140    6.6630 C.3       1 MOL         0.0000 
     36 C64        -2.1640    7.5390    6.4780 C.3       1 MOL         0.0000 
     37 C68        -4.2390    6.7340    5.3310 C.3       1 MOL         0.0000 
     38 C21        -4.5770    3.5540    6.0950 C.2       1 MOL         0.6900 
     39 N74        -5.6510    2.7380    6.2280 N.am      1 MOL        -0.6602 
     40 C75        -6.0220    1.7960    5.1500 C.3       1 MOL         0.4811 
     41 O76        -3.9530    3.6410    5.0550 O.2       1 MOL        -0.5700 
     42 C77        -6.2560    0.3760    5.5950 C.2       1 MOL         0.0462 
     43 C80        -5.2400   -0.5250    5.7510 C.2       1 MOL        -0.1100 
     44 S81        -5.8500   -2.0870    6.1810 S.3       1 MOL        -0.0800 
     45 C82        -7.4600   -1.4280    6.0510 C.2       1 MOL         0.1981 
     46 N83        -7.5320   -0.1180    5.7660 N.2       1 MOL        -0.5653 
     47 C85        -8.7290   -2.2290    6.2180 C.3       1 MOL         0.1800 
     48 C86        -9.0720   -2.9310    4.8860 C.3       1 MOL         0.0000 
     49 C90        -8.5590   -3.2640    7.3450 C.3       1 MOL         0.0000 
     50 C95        -6.5910    2.7640    7.3640 C.3       1 MOL         0.3001 
     51 H1          1.9400    9.2990   16.3260 H         1 MOL         0.1500 
     52 H2          5.5450    7.3260   17.2120 H         1 MOL         0.1500 
     53 H3          2.2900    9.2310   13.2740 H         1 MOL         0.0000 
     54 H4          1.1500    8.1140   14.0390 H         1 MOL         0.0000 
     55 H5          2.8290    5.8680   10.8320 H         1 MOL         0.3700 
     56 H6          0.2740    6.5180    9.4780 H         1 MOL         0.0000 
     57 H7          1.1270    4.6590    7.9180 H         1 MOL         0.0000 
     58 H8          1.1150    3.6660   10.8090 H         1 MOL         0.0000 
     59 H9          0.6660    2.7730    9.3730 H         1 MOL         0.0000 
     60 H10        -0.8170    5.1480   10.5650 H         1 MOL         0.0000 
     61 H11         1.4380    7.0500    7.4000 H         1 MOL         0.0000 
     62 H12         3.0000    6.8770    8.1690 H         1 MOL         0.0000 
     63 H13        -0.1090    8.9360    8.1540 H         1 MOL         0.1500 
     64 H14        -0.1680   11.3290    8.7870 H         1 MOL         0.1500 
     65 H15         1.8590   12.4130    9.7180 H         1 MOL         0.1500 
     66 H16         3.9390   11.0890   10.0180 H         1 MOL         0.1500 
     67 H17         3.9830    8.6840    9.3990 H         1 MOL         0.1500 
     68 H18         3.1080    3.8070    8.3170 H         1 MOL         0.4000 
     69 H19        -2.5710    3.7720   11.2820 H         1 MOL         0.0000 
     70 H20        -1.0860    3.0870   11.8980 H         1 MOL         0.0000 
     71 H21        -3.8960    2.5850    9.5220 H         1 MOL         0.1500 
     72 H22        -4.5060    0.3480    8.6320 H         1 MOL         0.1500 
     73 H23        -3.0230   -1.6010    9.0550 H         1 MOL         0.1500 
     74 H24        -0.9490   -1.3110   10.3520 H         1 MOL         0.1500 
     75 H25        -0.3060    0.9330   11.1970 H         1 MOL         0.1500 
     76 H26        -1.3340    3.6800    8.0560 H         1 MOL         0.3700 
     77 H27        -4.7950    4.1670    8.0150 H         1 MOL         0.3700 
     78 H28        -2.3590    4.8600    6.5090 H         1 MOL         0.0000 
     79 H29        -4.0630    7.2230    7.4130 H         1 MOL         0.0000 
     80 H30        -2.3980    8.5680    6.1940 H         1 MOL         0.0000 
     81 H31        -1.5320    7.1030    5.7030 H         1 MOL         0.0000 
     82 H32        -1.5940    7.5690    7.4050 H         1 MOL         0.0000 
     83 H33        -5.2080    6.2410    5.4350 H         1 MOL         0.0000 
     84 H34        -3.6780    6.2290    4.5430 H         1 MOL         0.0000 
     85 H35        -4.4220    7.7610    5.0090 H         1 MOL         0.0000 
     86 H36        -5.2410    1.8030    4.3970 H         1 MOL         0.0000 
     87 H37        -6.9260    2.1710    4.6640 H         1 MOL         0.0000 
     88 H38        -4.1700   -0.4160    5.5920 H         1 MOL         0.1500 
     89 H39        -9.5440   -1.5540    6.4840 H         1 MOL         0.0000 
     90 H40       -10.0170   -3.4710    4.9650 H         1 MOL         0.0000 
     91 H41        -8.3010   -3.6550    4.6110 H         1 MOL         0.0000 
     92 H42        -9.1610   -2.2060    4.0730 H         1 MOL         0.0000 
     93 H43        -8.2130   -2.7900    8.2670 H         1 MOL         0.0000 
     94 H44        -7.8290   -4.0220    7.0540 H         1 MOL         0.0000 
     95 H45        -9.5010   -3.7730    7.5540 H         1 MOL         0.0000 
     96 H46        -6.7600    3.7930    7.6890 H         1 MOL         0.0000 
     97 H47        -6.1890    2.1720    8.1900 H         1 MOL         0.0000 
     98 H48        -7.5570    2.3480    7.0620 H         1 MOL         0.0000 
@<TRIPOS>BOND
     1    2    1 2    
     2    1    5 1    
     3    2    3 1    
     4    6    2 1    
     5    3    4 1    
     6    4    5 2    
     7    7    6 1    
     8    8    7 1    
     9    8    9 2    
    10   10    8 am   
    11   11   10 1    
    12   12   11 1    
    13   11   15 1    
    14   13   12 1    
    15   12   22 1    
    16   14   13 1    
    17   14   23 1    
    18   30   14 1    
    19   15   16 1    
    20   16   17 ar   
    21   16   21 ar   
    22   17   18 ar   
    23   18   19 ar   
    24   20   19 ar   
    25   21   20 ar   
    26   23   24 1    
    27   24   25 ar   
    28   24   29 ar   
    29   25   26 ar   
    30   26   27 ar   
    31   28   27 ar   
    32   29   28 ar   
    33   33   30 am   
    34   32   31 1    
    35   31   38 am   
    36   32   33 1    
    37   32   35 1    
    38   33   34 2    
    39   35   36 1    
    40   35   37 1    
    41   38   39 am   
    42   38   41 2    
    43   39   40 1    
    44   39   50 1    
    45   40   42 1    
    46   42   43 2    
    47   42   46 1    
    48   43   44 1    
    49   44   45 1    
    50   45   46 2    
    51   45   47 1    
    52   47   48 1    
    53   47   49 1    
    54    1   51 1    
    55    4   52 1    
    56    6   53 1    
    57    6   54 1    
    58   10   55 1    
    59   11   56 1    
    60   12   57 1    
    61   13   58 1    
    62   13   59 1    
    63   14   60 1    
    64   15   61 1    
    65   15   62 1    
    66   17   63 1    
    67   18   64 1    
    68   19   65 1    
    69   20   66 1    
    70   21   67 1    
    71   22   68 1    
    72   23   69 1    
    73   23   70 1    
    74   25   71 1    
    75   26   72 1    
    76   27   73 1    
    77   28   74 1    
    78   29   75 1    
    79   30   76 1    
    80   31   77 1    
    81   32   78 1    
    82   35   79 1    
    83   36   80 1    
    84   36   81 1    
    85   36   82 1    
    86   37   83 1    
    87   37   84 1    
    88   37   85 1    
    89   40   86 1    
    90   40   87 1    
    91   43   88 1    
    92   47   89 1    
    93   48   90 1    
    94   48   91 1    
    95   48   92 1    
    96   49   93 1    
    97   49   94 1    
    98   49   95 1    
    99   50   96 1    
   100   50   97 1    
   101   50   98 1    
@<TRIPOS>SUBSTRUCTURE
     1 MOL         1 PERM              0 ****  ****    0 ROOT 
@<TRIPOS>NORMAL
@<TRIPOS>ALT_TYPE
MMFF94_ALT_TYPE_SET 
MMFF94 6 CR 11 CR 12 CR 13 CR 14 CR 15 CR 23 CR 32 CR 35 CR 36 CR 37 CR \
40 CR 47 CR 48 CR 49 CR 50 CR 2 C5A 4 C5A 43 C5A 45 C5A \
1 C5B 42 C5B 16 CB 17 CB 18 CB 19 CB 20 CB 21 CB 24 CB \
25 CB 26 CB 27 CB 28 CB 29 CB 8 COO 38 CONN 33 C=ON 51 HC \
52 HC 53 HC 54 HC 56 HC 57 HC 58 HC 59 HC 60 HC 61 HC \
62 HC 63 HC 64 HC 65 HC 66 HC 67 HC 69 HC 70 HC 71 HC \
72 HC 73 HC 74 HC 75 HC 78 HC 79 HC 80 HC 81 HC 82 HC \
83 HC 84 HC 85 HC 86 HC 87 HC 88 HC 89 HC 90 HC 91 HC \
92 HC 93 HC 94 HC 95 HC 96 HC 97 HC 98 HC 55 HNCO 76 HNCO \
77 HNCO 68 HOR 9 O=CN 34 O=CN 41 O=CN 7 OC=O 22 OR \
5 N5B 46 N5B 10 NC=O 30 NC=O 31 NC=O 39 NC=O 3 STHI 44 STHI \

