#	Name:			3uuo_ligand
#	Creating user name:	suminyi
#	Creation time:		Sun Sep 30 06:48:58 2018

#	Modifying user name:	suminyi
#	Modification time:	Sun Sep 30 06:48:58 2018

@<TRIPOS>MOLECULE
3uuo_ligand
   45    48     1     1     0
SMALL
MMFF94_CHARGES


@<TRIPOS>ATOM
      1 C11         4.7290   12.1460   42.0020 C.ar      1 MOL        -0.1500 
      2 C20         3.7580   13.4990   40.2660 C.ar      1 MOL        -0.1500 
      3 C8          4.3570   13.0430   43.0150 C.ar      1 MOL         0.0000 
      4 C9          4.3170   13.6790   45.3130 C.ar      1 MOL         0.0000 
      5 C15         3.3490   14.4580   41.2160 C.ar      1 MOL        -0.1435 
      6 C10         3.6530   14.2420   42.6160 C.ar      1 MOL         0.3100 
      7 C7          4.7290   12.7540   44.3800 C.ar      1 MOL         0.1000 
      8 C16         4.4720   12.3560   40.6430 C.ar      1 MOL         0.0825 
      9 C13         4.2780   13.8290   46.6690 C.2       1 MOL         0.1078 
     10 C12         3.5340   14.8900   44.8590 C.ar      1 MOL         0.1054 
     11 C2          4.8480   10.3810   45.0180 C.3       1 MOL         0.3691 
     12 C6          6.9720   11.7400   44.4610 C.3       1 MOL         0.3691 
     13 C3          5.7470    9.4220   45.7880 C.3       1 MOL         0.5030 
     14 C5          7.7690   10.6990   45.2110 C.3       1 MOL         0.5030 
     15 C23         2.6140   15.6670   40.7110 C.3       1 MOL         0.1435 
     16 C19         4.8900   13.0050   47.7300 C.3       1 MOL         0.1810 
     17 C22         5.8550   10.5670   39.7870 C.3       1 MOL         0.2800 
     18 N18         3.7000   14.9670   47.0320 N.2       1 MOL        -0.7068 
     19 N17         3.2210   15.6290   45.9140 N.pl3     1 MOL         0.2996 
     20 N14         3.2520   15.1200   43.5930 N.ar      1 MOL        -0.5670 
     21 N1          5.5080   11.6270   44.7030 N.pl3     1 MOL        -0.8382 
     22 N4          7.0730    9.3900   45.0940 N.4       1 MOL        -0.9060 
     23 O21         4.8170   11.5230   39.6120 O.3       1 MOL        -0.3625 
     24 H1          5.2456   11.2374   42.2893 H         1 MOL         0.1500 
     25 H2          3.5139   13.6507   39.2208 H         1 MOL         0.1500 
     26 H3          3.9588   10.5975   45.6282 H         1 MOL         0.0000 
     27 H4          4.5397    9.8981   44.0790 H         1 MOL         0.0000 
     28 H5          7.1609   11.6194   43.3841 H         1 MOL         0.0000 
     29 H6          7.3058   12.7376   44.7824 H         1 MOL         0.0000 
     30 H7          5.3030    8.4156   45.7954 H         1 MOL         0.0000 
     31 H8          5.8733    9.7747   46.8222 H         1 MOL         0.0000 
     32 H9          7.8456   10.9840   46.2707 H         1 MOL         0.0000 
     33 H10         8.7773   10.6220   44.7781 H         1 MOL         0.0000 
     34 H11         2.5065   15.6008   39.6183 H         1 MOL         0.0000 
     35 H12         3.1795   16.5744   40.9695 H         1 MOL         0.0000 
     36 H13         1.6178   15.7110   41.1754 H         1 MOL         0.0000 
     37 H14         4.6444   13.4321   48.7135 H         1 MOL         0.0000 
     38 H15         5.9821   12.9904   47.5990 H         1 MOL         0.0000 
     39 H16         4.4995   11.9785   47.6683 H         1 MOL         0.0000 
     40 H17         5.9871    9.9948   38.8569 H         1 MOL         0.0000 
     41 H18         5.5879    9.8812   40.6045 H         1 MOL         0.0000 
     42 H19         6.7930   11.0854   40.0349 H         1 MOL         0.0000 
     43 H20         2.7164   16.5269   45.9041 H         1 MOL         0.2700 
     44 H21         6.9294    9.1793   44.1188 H         1 MOL         0.4500 
     45 H22         7.6462    8.6737   45.5117 H         1 MOL         0.4500 
@<TRIPOS>BOND
     1    3    1 ar   
     2    1    8 ar   
     3    5    2 ar   
     4    8    2 ar   
     5    3    6 ar   
     6    7    3 ar   
     7    7    4 ar   
     8    4    9 1    
     9    4   10 ar   
    10    6    5 ar   
    11    5   15 1    
    12    6   20 ar   
    13   21    7 1    
    14    8   23 1    
    15    9   16 1    
    16    9   18 2    
    17   10   19 1    
    18   10   20 ar   
    19   11   13 1    
    20   21   11 1    
    21   12   14 1    
    22   12   21 1    
    23   13   22 1    
    24   14   22 1    
    25   23   17 1    
    26   18   19 1    
    27    1   24 1    
    28    2   25 1    
    29   11   26 1    
    30   11   27 1    
    31   12   28 1    
    32   12   29 1    
    33   13   30 1    
    34   13   31 1    
    35   14   32 1    
    36   14   33 1    
    37   15   34 1    
    38   15   35 1    
    39   15   36 1    
    40   16   37 1    
    41   16   38 1    
    42   16   39 1    
    43   17   40 1    
    44   17   41 1    
    45   17   42 1    
    46   19   43 1    
    47   22   44 1    
    48   22   45 1    
@<TRIPOS>SUBSTRUCTURE
     1 MOL         1 PERM              0 ****  ****    0 ROOT 
@<TRIPOS>NORMAL
@<TRIPOS>ALT_TYPE
MMFF94_ALT_TYPE_SET 
MMFF94 11 CR 12 CR 13 CR 14 CR 15 CR 16 CR 17 CR 10 C5A 9 C5B 4 C5B \
1 CB 2 CB 3 CB 5 CB 6 CB 7 CB 8 CB 24 HC 25 HC 26 HC \
27 HC 28 HC 29 HC 30 HC 31 HC 32 HC 33 HC 34 HC 35 HC \
36 HC 37 HC 38 HC 39 HC 40 HC 41 HC 42 HC 43 HPYL 44 HNR+ \
45 HNR+ 23 OC=C 20 NPYD 19 NPYL 18 N5A 22 NR+ 21 NC=C \

