#	Name:			3uuo_ligand
#	Creating user name:	suminyi
#	Creation time:		Sun Sep 30 06:51:01 2018

#	Modifying user name:	suminyi
#	Modification time:	Sun Sep 30 06:51:02 2018

@<TRIPOS>MOLECULE
3uuo_ligand
   45    48     1     1     0
SMALL
MMFF94_CHARGES


@<TRIPOS>ATOM
      1 C11         4.9180   11.9650   42.0360 C.ar      1 MOL        -0.1500 
      2 C20         3.9320   13.3590   40.3400 C.ar      1 MOL        -0.1500 
      3 C8          4.5080   12.8630   43.0360 C.ar      1 MOL         0.0000 
      4 C9          4.2520   13.5370   45.2980 C.ar      1 MOL         0.0000 
      5 C15         3.5030   14.2630   41.3130 C.ar      1 MOL        -0.1435 
      6 C10         3.7740   14.0230   42.6730 C.ar      1 MOL         0.3100 
      7 C7          4.8020   12.6300   44.3960 C.ar      1 MOL         0.1000 
      8 C16         4.6310   12.2150   40.6950 C.ar      1 MOL         0.0825 
      9 C13         4.2660   13.6140   46.7210 C.2       1 MOL         0.1078 
     10 C12         3.5280   14.6150   44.8850 C.ar      1 MOL         0.1054 
     11 C2          5.0350   10.2510   45.0670 C.3       1 MOL         0.3691 
     12 C6          7.0770   11.6940   44.6600 C.3       1 MOL         0.3691 
     13 C3          5.8520    9.4490   46.1200 C.3       1 MOL         0.5030 
     14 C5          7.8410   10.8700   45.7330 C.3       1 MOL         0.5030 
     15 C23         2.7540   15.5120   40.8510 C.3       1 MOL         0.1435 
     16 C19         4.9510   12.7000   47.6930 C.3       1 MOL         0.1810 
     17 C22         6.0840   10.4030   39.8120 C.3       1 MOL         0.2800 
     18 N18         3.5690   14.6850   47.1510 N.2       1 MOL        -0.7068 
     19 N17         3.1450   15.2770   45.9910 N.pl3     1 MOL         0.2996 
     20 N14         3.3200   14.9150   43.5940 N.ar      1 MOL        -0.5670 
     21 N1          5.6090   11.5950   44.8300 N.pl3     1 MOL        -0.8382 
     22 N4          7.3550    9.4290   45.8850 N.4       1 MOL        -0.9060 
     23 O21         5.0070   11.3580   39.6810 O.3       1 MOL        -0.3625 
     24 H1          5.4540   11.0640   42.3050 H         1 MOL         0.1500 
     25 H2          3.7270   13.5390   39.2860 H         1 MOL         0.1500 
     26 H3          4.0080   10.3530   45.4260 H         1 MOL         0.0000 
     27 H4          5.0090    9.6920   44.1280 H         1 MOL         0.0000 
     28 H5          7.3530   11.3260   43.6680 H         1 MOL         0.0000 
     29 H6          7.3910   12.7400   44.7250 H         1 MOL         0.0000 
     30 H7          5.4970    8.4120   46.1740 H         1 MOL         0.0000 
     31 H8          5.6980    9.9050   47.1030 H         1 MOL         0.0000 
     32 H9          7.7140   11.3600   46.7040 H         1 MOL         0.0000 
     33 H10         8.9110   10.8590   45.5000 H         1 MOL         0.0000 
     34 H11         2.3690   15.3950   39.8360 H         1 MOL         0.0000 
     35 H12         3.4230   16.3730   40.8580 H         1 MOL         0.0000 
     36 H13         1.9020   15.7320   41.4990 H         1 MOL         0.0000 
     37 H14         4.8050   13.0440   48.7200 H         1 MOL         0.0000 
     38 H15         6.0250   12.6680   47.5040 H         1 MOL         0.0000 
     39 H16         4.5520   11.6910   47.6230 H         1 MOL         0.0000 
     40 H17         6.2240    9.9000   38.8510 H         1 MOL         0.0000 
     41 H18         5.8300    9.6620   40.5740 H         1 MOL         0.0000 
     42 H19         7.0030   10.9290   40.0850 H         1 MOL         0.0000 
     43 H20         2.5990   16.1330   45.9990 H         1 MOL         0.2700 
     44 H21         7.5950    8.8470   45.0580 H         1 MOL         0.4500 
     45 H22         7.8220    8.9410   46.6910 H         1 MOL         0.4500 
@<TRIPOS>BOND
     1    3    1 ar   
     2    1    8 ar   
     3    5    2 ar   
     4    8    2 ar   
     5    3    6 ar   
     6    7    3 ar   
     7    7    4 ar   
     8    4    9 1    
     9    4   10 ar   
    10    6    5 ar   
    11    5   15 1    
    12    6   20 ar   
    13   21    7 1    
    14    8   23 1    
    15    9   16 1    
    16    9   18 2    
    17   10   19 1    
    18   10   20 ar   
    19   11   13 1    
    20   21   11 1    
    21   12   14 1    
    22   12   21 1    
    23   13   22 1    
    24   14   22 1    
    25   23   17 1    
    26   18   19 1    
    27    1   24 1    
    28    2   25 1    
    29   11   26 1    
    30   11   27 1    
    31   12   28 1    
    32   12   29 1    
    33   13   30 1    
    34   13   31 1    
    35   14   32 1    
    36   14   33 1    
    37   15   34 1    
    38   15   35 1    
    39   15   36 1    
    40   16   37 1    
    41   16   38 1    
    42   16   39 1    
    43   17   40 1    
    44   17   41 1    
    45   17   42 1    
    46   19   43 1    
    47   22   44 1    
    48   22   45 1    
@<TRIPOS>SUBSTRUCTURE
     1 MOL         1 PERM              0 ****  ****    0 ROOT 
@<TRIPOS>NORMAL
@<TRIPOS>ALT_TYPE
MMFF94_ALT_TYPE_SET 
MMFF94 11 CR 12 CR 13 CR 14 CR 15 CR 16 CR 17 CR 10 C5A 9 C5B 4 C5B \
1 CB 2 CB 3 CB 5 CB 6 CB 7 CB 8 CB 24 HC 25 HC 26 HC \
27 HC 28 HC 29 HC 30 HC 31 HC 32 HC 33 HC 34 HC 35 HC \
36 HC 37 HC 38 HC 39 HC 40 HC 41 HC 42 HC 43 HPYL 44 HNR+ \
45 HNR+ 23 OC=C 20 NPYD 19 NPYL 18 N5A 22 NR+ 21 NC=C \

