#	Name:			3uo4_ligand
#	Creating user name:	suminyi
#	Creation time:		Sun Sep 30 06:51:01 2018

#	Modifying user name:	suminyi
#	Modification time:	Sun Sep 30 06:51:01 2018

@<TRIPOS>MOLECULE
3uo4_ligand
   46    49     1     1     0
SMALL
MMFF94_CHARGES


@<TRIPOS>ATOM
      1 N01         3.1790   31.8200    8.5940 N.ar      1 MOL        -0.6200 
      2 N02         3.8840   31.0710    6.4500 N.ar      1 MOL        -0.6200 
      3 N03         5.1970   29.2550    6.1410 N.pl3     1 MOL        -0.6000 
      4 N04         2.7250   33.0040    6.7360 N.pl3     1 MOL        -0.6000 
      5 C05         3.7890   30.7430    9.1230 C.ar      1 MOL         0.1600 
      6 C06         3.2840   31.9050    7.2700 C.ar      1 MOL         0.7200 
      7 C07         4.4900   30.0380    6.9920 C.ar      1 MOL         0.4100 
      8 C08         4.4690   29.8180    8.3480 C.ar      1 MOL        -0.1500 
      9 C09         5.3420   29.3200    4.7720 C.ar      1 MOL         0.1000 
     10 C10         4.2840   29.6810    3.9400 C.ar      1 MOL        -0.1500 
     11 C11         4.5070   29.9650    2.5960 C.ar      1 MOL        -0.1500 
     12 C12         5.7570   29.7590    2.0280 C.ar      1 MOL        -0.1500 
     13 C13         6.8100   29.3250    2.8210 C.ar      1 MOL        -0.1500 
     14 C14         6.6070   29.1240    4.1920 C.ar      1 MOL         0.0000 
     15 C15         7.7830   28.9290    5.0630 C.ar      1 MOL         0.0000 
     16 C16         2.3120   33.3420    5.4710 C.ar      1 MOL         0.1000 
     17 C17         1.2730   34.2580    5.3500 C.ar      1 MOL        -0.1500 
     18 C18         0.7720   34.6050    4.0990 C.ar      1 MOL        -0.1500 
     19 C19         1.2840   34.0030    2.9440 C.ar      1 MOL        -0.1790 
     20 C20         2.3740   33.1410    3.0570 C.ar      1 MOL        -0.1500 
     21 C21         2.9000   32.8390    4.3080 C.ar      1 MOL        -0.1500 
     22 C22         0.6680   34.2690    1.6080 C.2       1 MOL         0.9790 
     23 C23         8.0270   27.7020    5.6950 C.ar      1 MOL        -0.1500 
     24 C24         9.0560   27.6150    6.6250 C.ar      1 MOL        -0.1500 
     25 C25         9.8000   28.7460    6.9320 C.ar      1 MOL        -0.1500 
     26 C26         9.6010   29.9470    6.2640 C.ar      1 MOL        -0.1500 
     27 C27         8.5940   30.0400    5.3200 C.ar      1 MOL        -0.1500 
     28 O28         1.0720   33.6970    0.6210 O.co2     1 MOL        -0.9000 
     29 O29        -0.2970   35.0050    1.5440 O.co2     1 MOL        -0.9000 
     30 H1          6.0050   28.8520    6.5910 H         1 MOL         0.4000 
     31 H2          2.5510   33.7020    7.4510 H         1 MOL         0.4000 
     32 H3          3.7270   30.6320   10.1990 H         1 MOL         0.1500 
     33 H4          4.9820   28.9770    8.7980 H         1 MOL         0.1500 
     34 H5          3.3010   29.8420    4.3690 H         1 MOL         0.1500 
     35 H6          3.7140   30.3890    1.9950 H         1 MOL         0.1500 
     36 H7          5.9200   29.9740    0.9770 H         1 MOL         0.1500 
     37 H8          7.8050   29.2120    2.3920 H         1 MOL         0.1500 
     38 H9          0.8480   34.7170    6.2360 H         1 MOL         0.1500 
     39 H10        -0.0270   35.3400    4.0320 H         1 MOL         0.1500 
     40 H11         2.8150   32.6950    2.1670 H         1 MOL         0.1500 
     41 H12         3.7860   32.2190    4.3540 H         1 MOL         0.1500 
     42 H13         7.4260   26.8270    5.4660 H         1 MOL         0.1500 
     43 H14         9.2870   26.6720    7.1180 H         1 MOL         0.1500 
     44 H15        10.5500   28.6830    7.6960 H         1 MOL         0.1500 
     45 H16        10.2210   30.8140    6.4780 H         1 MOL         0.1500 
     46 H17         8.4250   30.9840    4.8100 H         1 MOL         0.1500 
@<TRIPOS>BOND
     1    1    5 ar   
     2    1    6 ar   
     3    6    2 ar   
     4    2    7 ar   
     5    7    3 1    
     6    3    9 1    
     7    6    4 1    
     8    4   16 1    
     9    5    8 ar   
    10    7    8 ar   
    11    9   10 ar   
    12    9   14 ar   
    13   10   11 ar   
    14   11   12 ar   
    15   12   13 ar   
    16   13   14 ar   
    17   14   15 1    
    18   15   23 ar   
    19   15   27 ar   
    20   16   17 ar   
    21   16   21 ar   
    22   17   18 ar   
    23   18   19 ar   
    24   19   20 ar   
    25   19   22 1    
    26   20   21 ar   
    27   22   28 ar   
    28   22   29 ar   
    29   23   24 ar   
    30   24   25 ar   
    31   25   26 ar   
    32   26   27 ar   
    33    3   30 1    
    34    4   31 1    
    35    5   32 1    
    36    8   33 1    
    37   10   34 1    
    38   11   35 1    
    39   12   36 1    
    40   13   37 1    
    41   17   38 1    
    42   18   39 1    
    43   20   40 1    
    44   21   41 1    
    45   23   42 1    
    46   24   43 1    
    47   25   44 1    
    48   26   45 1    
    49   27   46 1    
@<TRIPOS>SUBSTRUCTURE
     1 MOL         1 PERM              0 ****  ****    0 ROOT 
@<TRIPOS>NORMAL
@<TRIPOS>ALT_TYPE
MMFF94_ALT_TYPE_SET 
MMFF94 5 CB 6 CB 7 CB 8 CB 9 CB 10 CB 11 CB 12 CB 13 CB 14 CB 15 CB \
16 CB 17 CB 18 CB 19 CB 20 CB 21 CB 23 CB 24 CB 25 CB \
26 CB 27 CB 22 CO2M 32 HC 33 HC 34 HC 35 HC 36 HC 37 HC \
38 HC 39 HC 40 HC 41 HC 42 HC 43 HC 44 HC 45 HC 46 HC \
30 HNCC 31 HNCC 28 O2CM 29 O2CM 1 NPYD 2 NPYD 3 NC=N \
4 NC=N 
