#	Name:			3rr4_ligand
#	Creating user name:	suminyi
#	Creation time:		Sun Sep 30 06:51:02 2018

#	Modifying user name:	suminyi
#	Modification time:	Sun Sep 30 06:51:02 2018

@<TRIPOS>MOLECULE
3rr4_ligand
   30    32     1     1     0
SMALL
MMFF94_CHARGES


@<TRIPOS>ATOM
      1 N1         17.1550   17.6060   17.4730 N.pl3     1 MOL         0.0332 
      2 N3         19.1840   18.3070   18.2540 N.2       1 MOL        -0.5653 
      3 C4         18.4010   18.1060   17.1860 C.2       1 MOL         0.2705 
      4 C5         18.1680   18.1000   14.7060 C.3       1 MOL         0.3691 
      5 C6         18.4170   17.8420   19.2370 C.ar      1 MOL         0.2272 
      6 C7         18.7480   17.7830   20.5800 C.ar      1 MOL        -0.1500 
      7 C8         17.7570   17.3830   21.4880 C.ar      1 MOL         0.0862 
      8 C10        15.7750   16.7470   23.1550 C.2       1 MOL         0.5600 
      9 C1         16.4690   17.0570   21.0330 C.ar      1 MOL         0.1790 
     10 C2         16.1820   17.0620   19.6660 C.ar      1 MOL        -0.1500 
     11 C3         17.1890   17.4530   18.7970 C.ar      1 MOL        -0.1516 
     12 N2         18.7770   18.5250   15.9610 N.pl3     1 MOL        -0.8531 
     13 C9         18.0340   17.2950   22.9400 C.2       1 MOL         0.5438 
     14 O1         19.1180   17.5130   23.4440 O.2       1 MOL        -0.5700 
     15 N4         16.9900   16.9940   23.6890 N.am      1 MOL        -0.4900 
     16 N5         14.7940   16.5240   24.0460 N.pl3     1 MOL        -0.8191 
     17 C11        13.4070   16.2890   23.6560 C.3       1 MOL         0.3691 
     18 N6         15.4600   16.7350   21.8580 N.2       1 MOL        -0.6290 
     19 H1         16.4030   17.4650   16.8320 H         1 MOL         0.2700 
     20 H2         18.9090   18.1490   13.9040 H         1 MOL         0.0000 
     21 H3         17.3330   18.7610   14.4610 H         1 MOL         0.0000 
     22 H4         17.8010   17.0750   14.7770 H         1 MOL         0.0000 
     23 H5         19.7480   18.0720   20.8880 H         1 MOL         0.1500 
     24 H6         15.1950   16.7900   19.3070 H         1 MOL         0.1500 
     25 H7         19.7560   18.8410   15.9420 H         1 MOL         0.4000 
     26 H8         17.1140   16.9790   24.6930 H         1 MOL         0.3700 
     27 H9         14.9920   16.7230   25.0430 H         1 MOL         0.4000 
     28 H10        12.7440   16.5230   24.4870 H         1 MOL         0.0000 
     29 H11        13.2870   15.2420   23.3690 H         1 MOL         0.0000 
     30 H12        13.1250   16.9260   22.8120 H         1 MOL         0.0000 
@<TRIPOS>BOND
     1    1    3 1    
     2   11    1 1    
     3    2    3 2    
     4    5    2 1    
     5    3   12 1    
     6   12    4 1    
     7    6    5 ar   
     8    5   11 ar   
     9    7    6 ar   
    10    9    7 ar   
    11    7   13 1    
    12    8   15 am   
    13    8   16 1    
    14   18    8 2    
    15    9   10 ar   
    16    9   18 1    
    17   10   11 ar   
    18   13   14 2    
    19   13   15 am   
    20   16   17 1    
    21    1   19 1    
    22    4   20 1    
    23    4   21 1    
    24    4   22 1    
    25    6   23 1    
    26   10   24 1    
    27   12   25 1    
    28   15   26 1    
    29   16   27 1    
    30   17   28 1    
    31   17   29 1    
    32   17   30 1    
@<TRIPOS>SUBSTRUCTURE
     1 MOL         1 PERM              0 ****  ****    0 ROOT 
@<TRIPOS>NORMAL
@<TRIPOS>ALT_TYPE
MMFF94_ALT_TYPE_SET 
MMFF94 4 CR 17 CR 3 C5A 11 C5A 5 C5B 6 CB 7 CB 9 CB 10 CB 8 CGD 13 C=ON \
20 HC 21 HC 22 HC 23 HC 24 HC 28 HC 29 HC 30 HC 19 HPYL \
25 HNCN 26 HNCN 27 HNCN 14 O=CN 1 NPYL 2 N5B 18 N=C \
15 NC=O 12 NC=N 16 NC=N 
