#	Name:			3pxf_ligand
#	Creating user name:	suminyi
#	Creation time:		Sun Sep 30 06:51:01 2018

#	Modifying user name:	suminyi
#	Modification time:	Sun Sep 30 06:51:01 2018

@<TRIPOS>MOLECULE
3pxf_ligand
   33    35     1     1     0
SMALL
MMFF94_CHARGES


@<TRIPOS>ATOM
      1 C1        122.7310  133.6490   64.8060 C.ar      1 MOL         0.1000 
      2 C2        123.0840  132.4440   64.1990 C.ar      1 MOL        -0.1500 
      3 C3        122.1290  131.6010   63.6570 C.ar      1 MOL        -0.1500 
      4 C4        120.7960  131.9720   63.7090 C.ar      1 MOL        -0.1500 
      5 C5        120.4170  133.1720   64.3110 C.ar      1 MOL         0.0000 
      6 C6        119.0530  133.4510   64.3340 C.ar      1 MOL        -0.1500 
      7 C7        118.5890  134.6000   64.9450 C.ar      1 MOL        -0.1500 
      8 C8        119.4910  135.4750   65.5280 C.ar      1 MOL        -0.1500 
      9 N         123.7850  134.3920   65.2560 N.pl3     1 MOL        -0.6000 
     10 S         121.8910  136.5040   66.2630 S.o2      1 MOL         1.4590 
     11 C9        120.8770  135.2470   65.4960 C.ar      1 MOL        -0.0090 
     12 C10       121.3680  134.0550   64.8790 C.ar      1 MOL         0.0000 
     13 C11       124.8220  134.0950   66.0920 C.ar      1 MOL         0.1000 
     14 C12       124.8920  132.8920   66.7960 C.ar      1 MOL        -0.1500 
     15 C13       125.9430  132.6610   67.6820 C.ar      1 MOL        -0.1500 
     16 C14       126.9230  133.6310   67.8700 C.ar      1 MOL        -0.1500 
     17 C15       126.8520  134.8360   67.1770 C.ar      1 MOL        -0.1500 
     18 C16       125.7980  135.0680   66.2950 C.ar      1 MOL        -0.1500 
     19 O1        122.7980  136.9040   65.2270 O.co2     1 MOL        -0.8167 
     20 O2        122.5280  135.8680   67.3770 O.co2     1 MOL        -0.8167 
     21 O3        121.0220  137.5880   66.6250 O.co2     1 MOL        -0.8167 
     22 H1        124.1310  132.1600   64.1370 H         1 MOL         0.1500 
     23 H2        122.4240  130.6590   63.1960 H         1 MOL         0.1500 
     24 H3        120.0490  131.3100   63.2810 H         1 MOL         0.1500 
     25 H4        118.3460  132.7620   63.8800 H         1 MOL         0.1500 
     26 H5        117.5220  134.8100   64.9810 H         1 MOL         0.1500 
     27 H6        119.0910  136.3570   66.0250 H         1 MOL         0.1500 
     28 H7        123.6630  135.4020   65.1330 H         1 MOL         0.4000 
     29 H8        124.1190  132.1390   66.6710 H         1 MOL         0.1500 
     30 H9        126.0030  131.7280   68.2310 H         1 MOL         0.1500 
     31 H10       127.7420  133.4480   68.5630 H         1 MOL         0.1500 
     32 H11       127.6130  135.5970   67.3290 H         1 MOL         0.1500 
     33 H12       125.7330  136.0180   65.7720 H         1 MOL         0.1500 
@<TRIPOS>BOND
     1    1    2 ar   
     2    1    9 1    
     3    1   12 ar   
     4    2    3 ar   
     5    3    4 ar   
     6    4    5 ar   
     7    5    6 ar   
     8    5   12 ar   
     9    6    7 ar   
    10    7    8 ar   
    11    8   11 ar   
    12    9   13 1    
    13   11   10 1    
    14   10   19 ar   
    15   10   20 ar   
    16   10   21 ar   
    17   11   12 ar   
    18   13   14 ar   
    19   13   18 ar   
    20   14   15 ar   
    21   15   16 ar   
    22   16   17 ar   
    23   17   18 ar   
    24    2   22 1    
    25    3   23 1    
    26    4   24 1    
    27    6   25 1    
    28    7   26 1    
    29    8   27 1    
    30    9   28 1    
    31   14   29 1    
    32   15   30 1    
    33   16   31 1    
    34   17   32 1    
    35   18   33 1    
@<TRIPOS>SUBSTRUCTURE
     1 MOL         1 PERM              0 ****  ****    0 ROOT 
@<TRIPOS>NORMAL
@<TRIPOS>ALT_TYPE
MMFF94_ALT_TYPE_SET 
MMFF94 1 CB 2 CB 3 CB 4 CB 5 CB 6 CB 7 CB 8 CB 11 CB 12 CB 13 CB 14 CB \
15 CB 16 CB 17 CB 18 CB 22 HC 23 HC 24 HC 25 HC 26 HC \
27 HC 29 HC 30 HC 31 HC 32 HC 33 HC 28 HNCC 19 O3S 20 O3S \
21 O3S 9 NC=C 10 SO3 
